REMARK  Name = ../refined-set-2016/4zip/4zip_pocket.pdb
REMARK  242 active torsions:
REMARK  status: ('A' for Active; 'I' for Inactive)
REMARK    1  A    between atoms: _1  and  _3
REMARK    2  A    between atoms: _3  and  _4
REMARK    3  A    between atoms: _3  and  _6
REMARK    4  A    between atoms: _6  and  _7
REMARK    5  A    between atoms: _7  and  _8
REMARK    6  A    between atoms: _8  and  _9
REMARK    7  A    between atoms: _19  and  _20
REMARK    8  A    between atoms: _25  and  _27
REMARK    9  A    between atoms: _27  and  _28
REMARK   10  A    between atoms: _27  and  _30
REMARK   11  A    between atoms: _30  and  _31
REMARK   12  A    between atoms: _34  and  _36
REMARK   13  A    between atoms: _36  and  _37
REMARK   14  A    between atoms: _36  and  _39
REMARK   15  A    between atoms: _39  and  _40
REMARK   16  A    between atoms: _43  and  _45
REMARK   17  A    between atoms: _45  and  _46
REMARK   18  A    between atoms: _45  and  _48
REMARK   19  A    between atoms: _48  and  _49
REMARK   20  A    between atoms: _52  and  _54
REMARK   21  A    between atoms: _54  and  _55
REMARK   22  A    between atoms: _54  and  _57
REMARK   23  A    between atoms: _57  and  _58
REMARK   24  A    between atoms: _61  and  _63
REMARK   25  A    between atoms: _63  and  _64
REMARK   26  A    between atoms: _63  and  _66
REMARK   27  A    between atoms: _66  and  _67
REMARK   28  A    between atoms: _70  and  _72
REMARK   29  A    between atoms: _72  and  _73
REMARK   30  A    between atoms: _75  and  _77
REMARK   31  A    between atoms: _77  and  _78
REMARK   32  A    between atoms: _81  and  _83
REMARK   33  A    between atoms: _83  and  _84
REMARK   34  A    between atoms: _83  and  _86
REMARK   35  A    between atoms: _86  and  _87
REMARK   36  A    between atoms: _90  and  _92
REMARK   37  A    between atoms: _92  and  _93
REMARK   38  A    between atoms: _92  and  _95
REMARK   39  A    between atoms: _95  and  _96
REMARK   40  A    between atoms: _99  and  _101
REMARK   41  A    between atoms: _101  and  _102
REMARK   42  A    between atoms: _101  and  _104
REMARK   43  A    between atoms: _104  and  _105
REMARK   44  A    between atoms: _108  and  _110
REMARK   45  A    between atoms: _110  and  _111
REMARK   46  A    between atoms: _110  and  _113
REMARK   47  A    between atoms: _116  and  _118
REMARK   48  A    between atoms: _118  and  _119
REMARK   49  A    between atoms: _118  and  _121
REMARK   50  A    between atoms: _121  and  _122
REMARK   51  A    between atoms: _122  and  _123
REMARK   52  A    between atoms: _123  and  _124
REMARK   53  A    between atoms: _124  and  _125
REMARK   54  A    between atoms: _129  and  _131
REMARK   55  A    between atoms: _131  and  _132
REMARK   56  A    between atoms: _131  and  _134
REMARK   57  A    between atoms: _134  and  _135
REMARK   58  A    between atoms: _135  and  _136
REMARK   59  A    between atoms: _138  and  _140
REMARK   60  A    between atoms: _140  and  _141
REMARK   61  A    between atoms: _140  and  _143
REMARK   62  A    between atoms: _143  and  _144
REMARK   63  A    between atoms: _147  and  _149
REMARK   64  A    between atoms: _149  and  _150
REMARK   65  A    between atoms: _152  and  _154
REMARK   66  A    between atoms: _154  and  _155
REMARK   67  A    between atoms: _157  and  _159
REMARK   68  A    between atoms: _159  and  _160
REMARK   69  A    between atoms: _159  and  _162
REMARK   70  A    between atoms: _162  and  _163
REMARK   71  A    between atoms: _166  and  _168
REMARK   72  A    between atoms: _168  and  _169
REMARK   73  A    between atoms: _171  and  _173
REMARK   74  A    between atoms: _173  and  _174
REMARK   75  A    between atoms: _176  and  _178
REMARK   76  A    between atoms: _178  and  _179
REMARK   77  A    between atoms: _178  and  _181
REMARK   78  A    between atoms: _181  and  _182
REMARK   79  A    between atoms: _188  and  _190
REMARK   80  A    between atoms: _190  and  _191
REMARK   81  A    between atoms: _190  and  _193
REMARK   82  A    between atoms: _193  and  _194
REMARK   83  A    between atoms: _197  and  _199
REMARK   84  A    between atoms: _199  and  _200
REMARK   85  A    between atoms: _199  and  _202
REMARK   86  A    between atoms: _205  and  _207
REMARK   87  A    between atoms: _207  and  _208
REMARK   88  A    between atoms: _207  and  _210
REMARK   89  A    between atoms: _210  and  _211
REMARK   90  A    between atoms: _215  and  _216
REMARK   91  A    between atoms: _221  and  _223
REMARK   92  A    between atoms: _223  and  _224
REMARK   93  A    between atoms: _223  and  _226
REMARK   94  A    between atoms: _226  and  _227
REMARK   95  A    between atoms: _231  and  _232
REMARK   96  A    between atoms: _237  and  _239
REMARK   97  A    between atoms: _239  and  _240
REMARK   98  A    between atoms: _239  and  _242
REMARK   99  A    between atoms: _245  and  _247
REMARK  100  A    between atoms: _247  and  _248
REMARK  101  A    between atoms: _247  and  _250
REMARK  102  A    between atoms: _250  and  _251
REMARK  103  A    between atoms: _256  and  _258
REMARK  104  A    between atoms: _258  and  _259
REMARK  105  A    between atoms: _258  and  _261
REMARK  106  A    between atoms: _261  and  _262
REMARK  107  A    between atoms: _265  and  _267
REMARK  108  A    between atoms: _267  and  _268
REMARK  109  A    between atoms: _267  and  _270
REMARK  110  A    between atoms: _270  and  _271
REMARK  111  A    between atoms: _274  and  _276
REMARK  112  A    between atoms: _276  and  _277
REMARK  113  A    between atoms: _279  and  _281
REMARK  114  A    between atoms: _281  and  _282
REMARK  115  A    between atoms: _281  and  _284
REMARK  116  A    between atoms: _284  and  _285
REMARK  117  A    between atoms: _285  and  _286
REMARK  118  A    between atoms: _286  and  _287
REMARK  119  A    between atoms: _296  and  _298
REMARK  120  A    between atoms: _298  and  _299
REMARK  121  A    between atoms: _298  and  _301
REMARK  122  A    between atoms: _301  and  _302
REMARK  123  A    between atoms: _307  and  _309
REMARK  124  A    between atoms: _309  and  _310
REMARK  125  A    between atoms: _309  and  _312
REMARK  126  A    between atoms: _312  and  _313
REMARK  127  A    between atoms: _313  and  _314
REMARK  128  A    between atoms: _314  and  _315
REMARK  129  A    between atoms: _324  and  _326
REMARK  130  A    between atoms: _326  and  _327
REMARK  131  A    between atoms: _326  and  _329
REMARK  132  A    between atoms: _329  and  _330
REMARK  133  A    between atoms: _333  and  _335
REMARK  134  A    between atoms: _335  and  _336
REMARK  135  A    between atoms: _335  and  _338
REMARK  136  A    between atoms: _338  and  _339
REMARK  137  A    between atoms: _342  and  _344
REMARK  138  A    between atoms: _344  and  _345
REMARK  139  A    between atoms: _344  and  _347
REMARK  140  A    between atoms: _347  and  _348
REMARK  141  A    between atoms: _351  and  _353
REMARK  142  A    between atoms: _353  and  _354
REMARK  143  A    between atoms: _353  and  _356
REMARK  144  A    between atoms: _356  and  _357
REMARK  145  A    between atoms: _360  and  _362
REMARK  146  A    between atoms: _362  and  _363
REMARK  147  A    between atoms: _365  and  _367
REMARK  148  A    between atoms: _367  and  _368
REMARK  149  A    between atoms: _371  and  _373
REMARK  150  A    between atoms: _373  and  _374
REMARK  151  A    between atoms: _373  and  _376
REMARK  152  A    between atoms: _376  and  _377
REMARK  153  A    between atoms: _380  and  _382
REMARK  154  A    between atoms: _382  and  _383
REMARK  155  A    between atoms: _382  and  _385
REMARK  156  A    between atoms: _385  and  _386
REMARK  157  A    between atoms: _389  and  _391
REMARK  158  A    between atoms: _391  and  _392
REMARK  159  A    between atoms: _391  and  _394
REMARK  160  A    between atoms: _394  and  _395
REMARK  161  A    between atoms: _398  and  _400
REMARK  162  A    between atoms: _400  and  _401
REMARK  163  A    between atoms: _400  and  _403
REMARK  164  A    between atoms: _406  and  _408
REMARK  165  A    between atoms: _408  and  _409
REMARK  166  A    between atoms: _408  and  _411
REMARK  167  A    between atoms: _411  and  _412
REMARK  168  A    between atoms: _415  and  _417
REMARK  169  A    between atoms: _417  and  _418
REMARK  170  A    between atoms: _417  and  _420
REMARK  171  A    between atoms: _420  and  _421
REMARK  172  A    between atoms: _421  and  _422
REMARK  173  A    between atoms: _422  and  _423
REMARK  174  A    between atoms: _423  and  _424
REMARK  175  A    between atoms: _428  and  _430
REMARK  176  A    between atoms: _430  and  _431
REMARK  177  A    between atoms: _430  and  _433
REMARK  178  A    between atoms: _433  and  _434
REMARK  179  A    between atoms: _434  and  _435
REMARK  180  A    between atoms: _437  and  _439
REMARK  181  A    between atoms: _439  and  _440
REMARK  182  A    between atoms: _439  and  _442
REMARK  183  A    between atoms: _442  and  _443
REMARK  184  A    between atoms: _446  and  _448
REMARK  185  A    between atoms: _448  and  _449
REMARK  186  A    between atoms: _451  and  _453
REMARK  187  A    between atoms: _453  and  _454
REMARK  188  A    between atoms: _456  and  _458
REMARK  189  A    between atoms: _458  and  _459
REMARK  190  A    between atoms: _458  and  _461
REMARK  191  A    between atoms: _461  and  _462
REMARK  192  A    between atoms: _465  and  _467
REMARK  193  A    between atoms: _467  and  _468
REMARK  194  A    between atoms: _470  and  _472
REMARK  195  A    between atoms: _472  and  _473
REMARK  196  A    between atoms: _475  and  _477
REMARK  197  A    between atoms: _477  and  _478
REMARK  198  A    between atoms: _477  and  _480
REMARK  199  A    between atoms: _480  and  _481
REMARK  200  A    between atoms: _487  and  _489
REMARK  201  A    between atoms: _489  and  _490
REMARK  202  A    between atoms: _489  and  _492
REMARK  203  A    between atoms: _492  and  _493
REMARK  204  A    between atoms: _496  and  _498
REMARK  205  A    between atoms: _498  and  _499
REMARK  206  A    between atoms: _498  and  _501
REMARK  207  A    between atoms: _504  and  _506
REMARK  208  A    between atoms: _506  and  _507
REMARK  209  A    between atoms: _506  and  _509
REMARK  210  A    between atoms: _509  and  _510
REMARK  211  A    between atoms: _513  and  _515
REMARK  212  A    between atoms: _515  and  _516
REMARK  213  A    between atoms: _515  and  _518
REMARK  214  A    between atoms: _518  and  _519
REMARK  215  A    between atoms: _523  and  _524
REMARK  216  A    between atoms: _529  and  _531
REMARK  217  A    between atoms: _531  and  _532
REMARK  218  A    between atoms: _531  and  _534
REMARK  219  A    between atoms: _537  and  _539
REMARK  220  A    between atoms: _539  and  _540
REMARK  221  A    between atoms: _539  and  _542
REMARK  222  A    between atoms: _542  and  _543
REMARK  223  A    between atoms: _548  and  _550
REMARK  224  A    between atoms: _550  and  _551
REMARK  225  A    between atoms: _550  and  _553
REMARK  226  A    between atoms: _553  and  _554
REMARK  227  A    between atoms: _557  and  _559
REMARK  228  A    between atoms: _559  and  _560
REMARK  229  A    between atoms: _559  and  _562
REMARK  230  A    between atoms: _562  and  _563
REMARK  231  A    between atoms: _566  and  _568
REMARK  232  A    between atoms: _568  and  _569
REMARK  233  A    between atoms: _571  and  _573
REMARK  234  A    between atoms: _573  and  _574
REMARK  235  A    between atoms: _573  and  _576
REMARK  236  A    between atoms: _576  and  _577
REMARK  237  A    between atoms: _577  and  _578
REMARK  238  A    between atoms: _578  and  _579
REMARK  239  A    between atoms: _588  and  _590
REMARK  240  A    between atoms: _590  and  _591
REMARK  241  A    between atoms: _590  and  _593
REMARK  242  A    between atoms: _593  and  _594
REMARK                            x       y       z     vdW  Elec       q    Type
REMARK                         _______ _______ _______ _____ _____    ______ ____
ROOT
ATOM      1  C   ARG A   1       3.496  26.117  16.381  0.00  0.00    +0.241 C 
ATOM      2  N   PRO A   2       4.360  27.076  16.707  0.00  0.00    -0.272 N 
ATOM      3  CD  PRO A   2       5.463  26.925  17.670  0.00  0.00    +0.094 C 
ATOM      4  CG  PRO A   2       6.106  28.332  17.649  0.00  0.00    +0.024 C 
ATOM      5  CB  PRO A   2       4.957  29.249  17.348  0.00  0.00    +0.031 C 
ATOM      6  CA  PRO A   2       4.145  28.479  16.307  0.00  0.00    +0.152 C 
ATOM      7  O   ARG A   1       2.480  26.348  15.684  0.00  0.00    -0.273 OA
ENDROOT
BRANCH   6   8
ATOM      8  C   PRO A   2       4.605  28.736  14.907  0.00  0.00    +0.241 C 
ATOM      9  O   PRO A   2       5.651  29.316  14.617  0.00  0.00    -0.273 OA
ATOM     10  N   LEU A   3       3.816  28.304  13.941  0.00  0.00    -0.298 N 
ATOM     11  H   LEU A   3       2.923  27.851  14.223  0.00  0.00    +0.150 HD
BRANCH  10  12
ATOM     12  CA  LEU A   3       4.087  28.407  12.527  0.00  0.00    +0.137 C 
BRANCH  12  13
ATOM     13  C   LEU A   3       3.414  29.646  11.983  0.00  0.00    +0.227 C 
ATOM     14  O   LEU A   3       2.249  29.935  12.280  0.00  0.00    -0.286 OA
ENDBRANCH  12  13
BRANCH  12  15
ATOM     15  CB  LEU A   3       3.534  27.172  11.800  0.00  0.00    +0.028 C 
BRANCH  15  16
ATOM     16  CG  LEU A   3       4.297  25.857  12.141  0.00  0.00    +0.002 C 
ATOM     17  CD2 LEU A   3       3.439  24.697  11.684  0.00  0.00    +0.000 C 
ATOM     18  CD1 LEU A   3       5.702  25.850  11.533  0.00  0.00    +0.000 C 
ENDBRANCH  15  16
ENDBRANCH  12  15
ENDBRANCH  10  12
ENDBRANCH   6   8
BRANCH   1  19
ATOM     19  CA  ARG A   1       3.749  24.707  16.843  0.00  0.00    +0.145 C 
BRANCH  19  20
ATOM     20  N   ARG A   1       2.487  24.145  17.356  0.00  0.00    -0.238 NA
ATOM     21  H   ARG A   1       2.087  23.296  16.909  0.00  0.00    +0.142 HD
ENDBRANCH  19  20
BRANCH  19  22
ATOM     22  CB  ARG A   1       4.320  23.873  15.712  0.00  0.00    +0.030 C 
BRANCH  22  23
ATOM     23  CG  ARG A   1       4.754  22.487  16.150  0.00  0.00    +0.045 C 
BRANCH  23  24
ATOM     24  CD  ARG A   1       5.158  21.597  15.017  0.00  0.00    +0.174 C 
BRANCH  24  25
ATOM     25  NE  ARG A   1       5.476  20.262  15.487  0.00  0.00    -0.265 N 
ATOM     26  HE  ARG A   1       5.712  20.158  16.494  0.00  0.00    +0.259 HD
ATOM     27  CZ  ARG A   1       5.492  19.173  14.753  0.00  0.00    +0.342 C 
ATOM     28  NH2 ARG A   1       5.758  18.008  15.322  0.00  0.00    -0.292 N 
ATOM     29 HH21 ARG A   1       5.952  17.960  16.343  0.00  0.00    +0.255 HD
ATOM     30 HH22 ARG A   1       5.773  17.141  14.749  0.00  0.00    +0.255 HD
ATOM     31  NH1 ARG A   1       5.230  19.237  13.461  0.00  0.00    -0.292 N 
ATOM     32 HH11 ARG A   1       5.010  20.153  13.020  0.00  0.00    +0.255 HD
ATOM     33 HH12 ARG A   1       5.244  18.372  12.884  0.00  0.00    +0.255 HD
ENDBRANCH  24  25
ENDBRANCH  23  24
ENDBRANCH  22  23
ENDBRANCH  19  22
ENDBRANCH   1  19
TORSDOF 11
REMARK  Name = ../refined-set-2016/4zip/4zip_pocket.pdb
REMARK  242 active torsions:
REMARK  status: ('A' for Active; 'I' for Inactive)
REMARK    1  A    between atoms: _1  and  _3
REMARK    2  A    between atoms: _3  and  _4
REMARK    3  A    between atoms: _3  and  _6
REMARK    4  A    between atoms: _6  and  _7
REMARK    5  A    between atoms: _7  and  _8
REMARK    6  A    between atoms: _8  and  _9
REMARK    7  A    between atoms: _19  and  _20
REMARK    8  A    between atoms: _25  and  _27
REMARK    9  A    between atoms: _27  and  _28
REMARK   10  A    between atoms: _27  and  _30
REMARK   11  A    between atoms: _30  and  _31
REMARK   12  A    between atoms: _34  and  _36
REMARK   13  A    between atoms: _36  and  _37
REMARK   14  A    between atoms: _36  and  _39
REMARK   15  A    between atoms: _39  and  _40
REMARK   16  A    between atoms: _43  and  _45
REMARK   17  A    between atoms: _45  and  _46
REMARK   18  A    between atoms: _45  and  _48
REMARK   19  A    between atoms: _48  and  _49
REMARK   20  A    between atoms: _52  and  _54
REMARK   21  A    between atoms: _54  and  _55
REMARK   22  A    between atoms: _54  and  _57
REMARK   23  A    between atoms: _57  and  _58
REMARK   24  A    between atoms: _61  and  _63
REMARK   25  A    between atoms: _63  and  _64
REMARK   26  A    between atoms: _63  and  _66
REMARK   27  A    between atoms: _66  and  _67
REMARK   28  A    between atoms: _70  and  _72
REMARK   29  A    between atoms: _72  and  _73
REMARK   30  A    between atoms: _75  and  _77
REMARK   31  A    between atoms: _77  and  _78
REMARK   32  A    between atoms: _81  and  _83
REMARK   33  A    between atoms: _83  and  _84
REMARK   34  A    between atoms: _83  and  _86
REMARK   35  A    between atoms: _86  and  _87
REMARK   36  A    between atoms: _90  and  _92
REMARK   37  A    between atoms: _92  and  _93
REMARK   38  A    between atoms: _92  and  _95
REMARK   39  A    between atoms: _95  and  _96
REMARK   40  A    between atoms: _99  and  _101
REMARK   41  A    between atoms: _101  and  _102
REMARK   42  A    between atoms: _101  and  _104
REMARK   43  A    between atoms: _104  and  _105
REMARK   44  A    between atoms: _108  and  _110
REMARK   45  A    between atoms: _110  and  _111
REMARK   46  A    between atoms: _110  and  _113
REMARK   47  A    between atoms: _116  and  _118
REMARK   48  A    between atoms: _118  and  _119
REMARK   49  A    between atoms: _118  and  _121
REMARK   50  A    between atoms: _121  and  _122
REMARK   51  A    between atoms: _122  and  _123
REMARK   52  A    between atoms: _123  and  _124
REMARK   53  A    between atoms: _124  and  _125
REMARK   54  A    between atoms: _129  and  _131
REMARK   55  A    between atoms: _131  and  _132
REMARK   56  A    between atoms: _131  and  _134
REMARK   57  A    between atoms: _134  and  _135
REMARK   58  A    between atoms: _135  and  _136
REMARK   59  A    between atoms: _138  and  _140
REMARK   60  A    between atoms: _140  and  _141
REMARK   61  A    between atoms: _140  and  _143
REMARK   62  A    between atoms: _143  and  _144
REMARK   63  A    between atoms: _147  and  _149
REMARK   64  A    between atoms: _149  and  _150
REMARK   65  A    between atoms: _152  and  _154
REMARK   66  A    between atoms: _154  and  _155
REMARK   67  A    between atoms: _157  and  _159
REMARK   68  A    between atoms: _159  and  _160
REMARK   69  A    between atoms: _159  and  _162
REMARK   70  A    between atoms: _162  and  _163
REMARK   71  A    between atoms: _166  and  _168
REMARK   72  A    between atoms: _168  and  _169
REMARK   73  A    between atoms: _171  and  _173
REMARK   74  A    between atoms: _173  and  _174
REMARK   75  A    between atoms: _176  and  _178
REMARK   76  A    between atoms: _178  and  _179
REMARK   77  A    between atoms: _178  and  _181
REMARK   78  A    between atoms: _181  and  _182
REMARK   79  A    between atoms: _188  and  _190
REMARK   80  A    between atoms: _190  and  _191
REMARK   81  A    between atoms: _190  and  _193
REMARK   82  A    between atoms: _193  and  _194
REMARK   83  A    between atoms: _197  and  _199
REMARK   84  A    between atoms: _199  and  _200
REMARK   85  A    between atoms: _199  and  _202
REMARK   86  A    between atoms: _205  and  _207
REMARK   87  A    between atoms: _207  and  _208
REMARK   88  A    between atoms: _207  and  _210
REMARK   89  A    between atoms: _210  and  _211
REMARK   90  A    between atoms: _215  and  _216
REMARK   91  A    between atoms: _221  and  _223
REMARK   92  A    between atoms: _223  and  _224
REMARK   93  A    between atoms: _223  and  _226
REMARK   94  A    between atoms: _226  and  _227
REMARK   95  A    between atoms: _231  and  _232
REMARK   96  A    between atoms: _237  and  _239
REMARK   97  A    between atoms: _239  and  _240
REMARK   98  A    between atoms: _239  and  _242
REMARK   99  A    between atoms: _245  and  _247
REMARK  100  A    between atoms: _247  and  _248
REMARK  101  A    between atoms: _247  and  _250
REMARK  102  A    between atoms: _250  and  _251
REMARK  103  A    between atoms: _256  and  _258
REMARK  104  A    between atoms: _258  and  _259
REMARK  105  A    between atoms: _258  and  _261
REMARK  106  A    between atoms: _261  and  _262
REMARK  107  A    between atoms: _265  and  _267
REMARK  108  A    between atoms: _267  and  _268
REMARK  109  A    between atoms: _267  and  _270
REMARK  110  A    between atoms: _270  and  _271
REMARK  111  A    between atoms: _274  and  _276
REMARK  112  A    between atoms: _276  and  _277
REMARK  113  A    between atoms: _279  and  _281
REMARK  114  A    between atoms: _281  and  _282
REMARK  115  A    between atoms: _281  and  _284
REMARK  116  A    between atoms: _284  and  _285
REMARK  117  A    between atoms: _285  and  _286
REMARK  118  A    between atoms: _286  and  _287
REMARK  119  A    between atoms: _296  and  _298
REMARK  120  A    between atoms: _298  and  _299
REMARK  121  A    between atoms: _298  and  _301
REMARK  122  A    between atoms: _301  and  _302
REMARK  123  A    between atoms: _307  and  _309
REMARK  124  A    between atoms: _309  and  _310
REMARK  125  A    between atoms: _309  and  _312
REMARK  126  A    between atoms: _312  and  _313
REMARK  127  A    between atoms: _313  and  _314
REMARK  128  A    between atoms: _314  and  _315
REMARK  129  A    between atoms: _324  and  _326
REMARK  130  A    between atoms: _326  and  _327
REMARK  131  A    between atoms: _326  and  _329
REMARK  132  A    between atoms: _329  and  _330
REMARK  133  A    between atoms: _333  and  _335
REMARK  134  A    between atoms: _335  and  _336
REMARK  135  A    between atoms: _335  and  _338
REMARK  136  A    between atoms: _338  and  _339
REMARK  137  A    between atoms: _342  and  _344
REMARK  138  A    between atoms: _344  and  _345
REMARK  139  A    between atoms: _344  and  _347
REMARK  140  A    between atoms: _347  and  _348
REMARK  141  A    between atoms: _351  and  _353
REMARK  142  A    between atoms: _353  and  _354
REMARK  143  A    between atoms: _353  and  _356
REMARK  144  A    between atoms: _356  and  _357
REMARK  145  A    between atoms: _360  and  _362
REMARK  146  A    between atoms: _362  and  _363
REMARK  147  A    between atoms: _365  and  _367
REMARK  148  A    between atoms: _367  and  _368
REMARK  149  A    between atoms: _371  and  _373
REMARK  150  A    between atoms: _373  and  _374
REMARK  151  A    between atoms: _373  and  _376
REMARK  152  A    between atoms: _376  and  _377
REMARK  153  A    between atoms: _380  and  _382
REMARK  154  A    between atoms: _382  and  _383
REMARK  155  A    between atoms: _382  and  _385
REMARK  156  A    between atoms: _385  and  _386
REMARK  157  A    between atoms: _389  and  _391
REMARK  158  A    between atoms: _391  and  _392
REMARK  159  A    between atoms: _391  and  _394
REMARK  160  A    between atoms: _394  and  _395
REMARK  161  A    between atoms: _398  and  _400
REMARK  162  A    between atoms: _400  and  _401
REMARK  163  A    between atoms: _400  and  _403
REMARK  164  A    between atoms: _406  and  _408
REMARK  165  A    between atoms: _408  and  _409
REMARK  166  A    between atoms: _408  and  _411
REMARK  167  A    between atoms: _411  and  _412
REMARK  168  A    between atoms: _415  and  _417
REMARK  169  A    between atoms: _417  and  _418
REMARK  170  A    between atoms: _417  and  _420
REMARK  171  A    between atoms: _420  and  _421
REMARK  172  A    between atoms: _421  and  _422
REMARK  173  A    between atoms: _422  and  _423
REMARK  174  A    between atoms: _423  and  _424
REMARK  175  A    between atoms: _428  and  _430
REMARK  176  A    between atoms: _430  and  _431
REMARK  177  A    between atoms: _430  and  _433
REMARK  178  A    between atoms: _433  and  _434
REMARK  179  A    between atoms: _434  and  _435
REMARK  180  A    between atoms: _437  and  _439
REMARK  181  A    between atoms: _439  and  _440
REMARK  182  A    between atoms: _439  and  _442
REMARK  183  A    between atoms: _442  and  _443
REMARK  184  A    between atoms: _446  and  _448
REMARK  185  A    between atoms: _448  and  _449
REMARK  186  A    between atoms: _451  and  _453
REMARK  187  A    between atoms: _453  and  _454
REMARK  188  A    between atoms: _456  and  _458
REMARK  189  A    between atoms: _458  and  _459
REMARK  190  A    between atoms: _458  and  _461
REMARK  191  A    between atoms: _461  and  _462
REMARK  192  A    between atoms: _465  and  _467
REMARK  193  A    between atoms: _467  and  _468
REMARK  194  A    between atoms: _470  and  _472
REMARK  195  A    between atoms: _472  and  _473
REMARK  196  A    between atoms: _475  and  _477
REMARK  197  A    between atoms: _477  and  _478
REMARK  198  A    between atoms: _477  and  _480
REMARK  199  A    between atoms: _480  and  _481
REMARK  200  A    between atoms: _487  and  _489
REMARK  201  A    between atoms: _489  and  _490
REMARK  202  A    between atoms: _489  and  _492
REMARK  203  A    between atoms: _492  and  _493
REMARK  204  A    between atoms: _496  and  _498
REMARK  205  A    between atoms: _498  and  _499
REMARK  206  A    between atoms: _498  and  _501
REMARK  207  A    between atoms: _504  and  _506
REMARK  208  A    between atoms: _506  and  _507
REMARK  209  A    between atoms: _506  and  _509
REMARK  210  A    between atoms: _509  and  _510
REMARK  211  A    between atoms: _513  and  _515
REMARK  212  A    between atoms: _515  and  _516
REMARK  213  A    between atoms: _515  and  _518
REMARK  214  A    between atoms: _518  and  _519
REMARK  215  A    between atoms: _523  and  _524
REMARK  216  A    between atoms: _529  and  _531
REMARK  217  A    between atoms: _531  and  _532
REMARK  218  A    between atoms: _531  and  _534
REMARK  219  A    between atoms: _537  and  _539
REMARK  220  A    between atoms: _539  and  _540
REMARK  221  A    between atoms: _539  and  _542
REMARK  222  A    between atoms: _542  and  _543
REMARK  223  A    between atoms: _548  and  _550
REMARK  224  A    between atoms: _550  and  _551
REMARK  225  A    between atoms: _550  and  _553
REMARK  226  A    between atoms: _553  and  _554
REMARK  227  A    between atoms: _557  and  _559
REMARK  228  A    between atoms: _559  and  _560
REMARK  229  A    between atoms: _559  and  _562
REMARK  230  A    between atoms: _562  and  _563
REMARK  231  A    between atoms: _566  and  _568
REMARK  232  A    between atoms: _568  and  _569
REMARK  233  A    between atoms: _571  and  _573
REMARK  234  A    between atoms: _573  and  _574
REMARK  235  A    between atoms: _573  and  _576
REMARK  236  A    between atoms: _576  and  _577
REMARK  237  A    between atoms: _577  and  _578
REMARK  238  A    between atoms: _578  and  _579
REMARK  239  A    between atoms: _588  and  _590
REMARK  240  A    between atoms: _590  and  _591
REMARK  241  A    between atoms: _590  and  _593
REMARK  242  A    between atoms: _593  and  _594
REMARK                            x       y       z     vdW  Elec       q    Type
REMARK                         _______ _______ _______ _____ _____    ______ ____
ROOT
ATOM      1  C   GLY A   5      16.791  28.304  19.688  0.00  0.00    +0.243 C 
ATOM      2  O   GLY A   5      17.846  27.692  19.836  0.00  0.00    -0.273 OA
ATOM      3  N   ALA A   6      16.548  29.017  18.602  0.00  0.00    -0.297 N 
ATOM      4  H   ALA A   6      15.641  29.525  18.561  0.00  0.00    +0.150 HD
ENDROOT
BRANCH   3   5
ATOM      5  CA  ALA A   6      17.440  29.155  17.455  0.00  0.00    +0.149 C 
ATOM      6  CB  ALA A   6      16.619  29.034  16.181  0.00  0.00    +0.031 C 
BRANCH   5   7
ATOM      7  C   ALA A   6      18.104  30.508  17.489  0.00  0.00    +0.241 C 
ATOM      8  N   ASP A   7      19.447  30.559  17.516  0.00  0.00    -0.297 N 
ATOM      9  H   ASP A   7      19.994  29.675  17.553  0.00  0.00    +0.150 HD
ATOM     10  O   ALA A   6      17.453  31.546  17.472  0.00  0.00    -0.273 OA
BRANCH   8  11
ATOM     11  CA  ASP A   7      20.141  31.831  17.494  0.00  0.00    +0.160 C 
BRANCH  11  12
ATOM     12  C   ASP A   7      19.875  32.554  16.173  0.00  0.00    +0.241 C 
ATOM     13  O   ASP A   7      19.728  33.783  16.153  0.00  0.00    -0.273 OA
ATOM     14  N   ASP A   8      19.898  31.798  15.075  0.00  0.00    -0.297 N 
ATOM     15  H   ASP A   8      19.930  30.768  15.214  0.00  0.00    +0.150 HD
BRANCH  14  16
ATOM     16  CA  ASP A   8      19.883  32.263  13.737  0.00  0.00    +0.160 C 
BRANCH  16  17
ATOM     17  C   ASP A   8      18.698  31.696  12.989  0.00  0.00    +0.241 C 
ATOM     18  O   ASP A   8      18.084  30.712  13.372  0.00  0.00    -0.273 OA
ATOM     19  N   THR A   9      18.370  32.327  11.880  0.00  0.00    -0.295 N 
ATOM     20  H   THR A   9      18.930  33.169  11.639  0.00  0.00    +0.150 HD
BRANCH  19  21
ATOM     21  CA  THR A   9      17.300  31.964  10.955  0.00  0.00    +0.176 C 
BRANCH  21  22
ATOM     22  C   THR A   9      17.834  31.019   9.913  0.00  0.00    +0.243 C 
ATOM     23  N   VAL A  10      17.132  29.909   9.673  0.00  0.00    -0.298 N 
ATOM     24  H   VAL A  10      16.213  29.788  10.145  0.00  0.00    +0.150 HD
ATOM     25  O   THR A   9      18.899  31.296   9.316  0.00  0.00    -0.273 OA
BRANCH  23  26
ATOM     26  CA  VAL A  10      17.602  28.857   8.773  0.00  0.00    +0.137 C 
BRANCH  26  27
ATOM     27  CB  VAL A  10      18.088  27.592   9.547  0.00  0.00    +0.026 C 
ATOM     28  CG2 VAL A  10      18.834  27.944  10.800  0.00  0.00    +0.002 C 
ATOM     29  CG1 VAL A  10      18.848  26.704   8.566  0.00  0.00    +0.002 C 
ENDBRANCH  26  27
BRANCH  26  30
ATOM     30  C   VAL A  10      16.428  28.465   7.870  0.00  0.00    +0.227 C 
ATOM     31  O   VAL A  10      15.359  28.059   8.369  0.00  0.00    -0.286 OA
ENDBRANCH  26  30
ENDBRANCH  23  26
ENDBRANCH  21  22
BRANCH  21  32
ATOM     32  CB  THR A   9      16.735  33.267  10.358  0.00  0.00    +0.137 C 
ATOM     33  CG2 THR A   9      15.736  33.013   9.262  0.00  0.00    +0.034 C 
BRANCH  32  34
ATOM     34  OG1 THR A   9      16.096  33.996  11.416  0.00  0.00    -0.382 OA
ATOM     35  HG1 THR A   9      16.760  34.201  12.121  0.00  0.00    +0.210 HD
ENDBRANCH  32  34
ENDBRANCH  21  32
ENDBRANCH  19  21
ENDBRANCH  16  17
BRANCH  16  36
ATOM     36  CB  ASP A   8      21.183  31.849  13.035  0.00  0.00    +0.143 C 
BRANCH  36  37
ATOM     37  CG  ASP A   8      22.463  32.386  13.610  0.00  0.00    +0.367 C 
ATOM     38  OD2 ASP A   8      22.458  33.235  14.474  0.00  0.00    -0.246 OA
ATOM     39  OD1 ASP A   8      23.570  31.927  13.200  0.00  0.00    -0.246 OA
ENDBRANCH  36  37
ENDBRANCH  16  36
ENDBRANCH  14  16
ENDBRANCH  11  12
BRANCH  11  40
ATOM     40  CB  ASP A   7      21.641  31.665  17.665  0.00  0.00    +0.143 C 
BRANCH  40  41
ATOM     41  CG  ASP A   7      22.129  31.100  18.999  0.00  0.00    +0.367 C 
ATOM     42  OD2 ASP A   7      21.425  31.179  20.008  0.00  0.00    -0.246 OA
ATOM     43  OD1 ASP A   7      23.234  30.543  19.006  0.00  0.00    -0.246 OA
ENDBRANCH  40  41
ENDBRANCH  11  40
ENDBRANCH   8  11
ENDBRANCH   5   7
ENDBRANCH   3   5
BRANCH   1  44
ATOM     44  CA  GLY A   5      15.755  28.187  20.776  0.00  0.00    +0.176 C 
BRANCH  44  47
ATOM     45  C   THR A   4      14.538  30.293  20.849  0.00  0.00    +0.243 C 
ATOM     46  O   THR A   4      15.449  30.884  21.404  0.00  0.00    -0.273 OA
ATOM     47  N   GLY A   5      14.559  28.994  20.543  0.00  0.00    -0.295 N 
ATOM     48  H   GLY A   5      13.713  28.550  20.133  0.00  0.00    +0.150 HD
BRANCH  45  49
ATOM     49  CA  THR A   4      13.253  31.056  20.522  0.00  0.00    +0.176 C 
BRANCH  49  51
ATOM     50  C   ASP A   3      12.805  30.281  18.268  0.00  0.00    +0.241 C 
ATOM     51  N   THR A   4      12.423  30.408  19.525  0.00  0.00    -0.295 N 
ATOM     52  H   THR A   4      11.496  30.031  19.810  0.00  0.00    +0.150 HD
ATOM     53  O   ASP A   3      13.925  30.687  17.891  0.00  0.00    -0.273 OA
BRANCH  50  54
ATOM     54  CA  ASP A   3      11.869  29.521  17.326  0.00  0.00    +0.160 C 
BRANCH  54  57
ATOM     55  C   LEU A   2       9.743  30.358  16.515  0.00  0.00    +0.241 C 
ATOM     56  O   LEU A   2       9.090  29.744  17.354  0.00  0.00    -0.273 OA
ATOM     57  N   ASP A   3      11.070  30.444  16.513  0.00  0.00    -0.297 N 
ATOM     58  H   ASP A   3      11.542  31.167  15.934  0.00  0.00    +0.150 HD
BRANCH  55  59
ATOM     59  CA  LEU A   2       9.010  31.062  15.379  0.00  0.00    +0.149 C 
BRANCH  59  61
ATOM     60  C   LEU A   1       9.198  29.358  13.641  0.00  0.00    +0.238 C 
ATOM     61  N   LEU A   2       8.468  30.022  14.519  0.00  0.00    -0.297 N 
ATOM     62  H   LEU A   2       7.457  29.790  14.599  0.00  0.00    +0.150 HD
ATOM     63  O   LEU A   1      10.360  29.649  13.391  0.00  0.00    -0.274 OA
BRANCH  60  64
ATOM     64  CA  LEU A   1       8.576  28.172  12.936  0.00  0.00    +0.145 C 
BRANCH  64  65
ATOM     65  N   LEU A   1       8.748  28.275  11.489  0.00  0.00    -0.238 NA
ATOM     66  H   LEU A   1       9.607  27.867  11.069  0.00  0.00    +0.142 HD
ENDBRANCH  64  65
BRANCH  64  67
ATOM     67  CB  LEU A   1       9.277  26.876  13.275  0.00  0.00    +0.026 C 
BRANCH  67  68
ATOM     68  CG  LEU A   1       9.181  26.207  14.550  0.00  0.00    +0.002 C 
ATOM     69  CD2 LEU A   1       7.764  25.826  14.888  0.00  0.00    +0.000 C 
ATOM     70  CD1 LEU A   1      10.088  24.968  14.500  0.00  0.00    +0.000 C 
ENDBRANCH  67  68
ENDBRANCH  64  67
ENDBRANCH  60  64
ENDBRANCH  59  61
BRANCH  59  71
ATOM     71  CB  LEU A   2       7.935  31.992  15.909  0.00  0.00    +0.029 C 
BRANCH  71  72
ATOM     72  CG  LEU A   2       7.078  32.737  14.870  0.00  0.00    +0.002 C 
ATOM     73  CD2 LEU A   2       6.045  33.596  15.616  0.00  0.00    +0.000 C 
ATOM     74  CD1 LEU A   2       7.833  33.624  13.927  0.00  0.00    +0.000 C 
ENDBRANCH  71  72
ENDBRANCH  59  71
ENDBRANCH  55  59
ENDBRANCH  54  57
BRANCH  54  75
ATOM     75  CB  ASP A   3      12.638  28.610  16.402  0.00  0.00    +0.143 C 
BRANCH  75  76
ATOM     76  CG  ASP A   3      13.289  27.514  17.182  0.00  0.00    +0.367 C 
ATOM     77  OD2 ASP A   3      13.200  27.531  18.439  0.00  0.00    -0.246 OA
ATOM     78  OD1 ASP A   3      13.820  26.602  16.546  0.00  0.00    -0.246 OA
ENDBRANCH  75  76
ENDBRANCH  54  75
ENDBRANCH  50  54
ENDBRANCH  49  51
BRANCH  49  79
ATOM     79  CB  THR A   4      12.443  31.293  21.817  0.00  0.00    +0.137 C 
ATOM     80  CG2 THR A   4      11.243  32.161  21.536  0.00  0.00    +0.034 C 
BRANCH  79  81
ATOM     81  OG1 THR A   4      12.025  30.042  22.365  0.00  0.00    -0.382 OA
ATOM     82  HG1 THR A   4      12.821  29.492  22.573  0.00  0.00    +0.210 HD
ENDBRANCH  79  81
ENDBRANCH  49  79
ENDBRANCH  45  49
ENDBRANCH  44  47
ENDBRANCH   1  44
TORSDOF 35
REMARK  Name = ../refined-set-2016/4zip/4zip_pocket.pdb
REMARK  242 active torsions:
REMARK  status: ('A' for Active; 'I' for Inactive)
REMARK    1  A    between atoms: _1  and  _3
REMARK    2  A    between atoms: _3  and  _4
REMARK    3  A    between atoms: _3  and  _6
REMARK    4  A    between atoms: _6  and  _7
REMARK    5  A    between atoms: _7  and  _8
REMARK    6  A    between atoms: _8  and  _9
REMARK    7  A    between atoms: _19  and  _20
REMARK    8  A    between atoms: _25  and  _27
REMARK    9  A    between atoms: _27  and  _28
REMARK   10  A    between atoms: _27  and  _30
REMARK   11  A    between atoms: _30  and  _31
REMARK   12  A    between atoms: _34  and  _36
REMARK   13  A    between atoms: _36  and  _37
REMARK   14  A    between atoms: _36  and  _39
REMARK   15  A    between atoms: _39  and  _40
REMARK   16  A    between atoms: _43  and  _45
REMARK   17  A    between atoms: _45  and  _46
REMARK   18  A    between atoms: _45  and  _48
REMARK   19  A    between atoms: _48  and  _49
REMARK   20  A    between atoms: _52  and  _54
REMARK   21  A    between atoms: _54  and  _55
REMARK   22  A    between atoms: _54  and  _57
REMARK   23  A    between atoms: _57  and  _58
REMARK   24  A    between atoms: _61  and  _63
REMARK   25  A    between atoms: _63  and  _64
REMARK   26  A    between atoms: _63  and  _66
REMARK   27  A    between atoms: _66  and  _67
REMARK   28  A    between atoms: _70  and  _72
REMARK   29  A    between atoms: _72  and  _73
REMARK   30  A    between atoms: _75  and  _77
REMARK   31  A    between atoms: _77  and  _78
REMARK   32  A    between atoms: _81  and  _83
REMARK   33  A    between atoms: _83  and  _84
REMARK   34  A    between atoms: _83  and  _86
REMARK   35  A    between atoms: _86  and  _87
REMARK   36  A    between atoms: _90  and  _92
REMARK   37  A    between atoms: _92  and  _93
REMARK   38  A    between atoms: _92  and  _95
REMARK   39  A    between atoms: _95  and  _96
REMARK   40  A    between atoms: _99  and  _101
REMARK   41  A    between atoms: _101  and  _102
REMARK   42  A    between atoms: _101  and  _104
REMARK   43  A    between atoms: _104  and  _105
REMARK   44  A    between atoms: _108  and  _110
REMARK   45  A    between atoms: _110  and  _111
REMARK   46  A    between atoms: _110  and  _113
REMARK   47  A    between atoms: _116  and  _118
REMARK   48  A    between atoms: _118  and  _119
REMARK   49  A    between atoms: _118  and  _121
REMARK   50  A    between atoms: _121  and  _122
REMARK   51  A    between atoms: _122  and  _123
REMARK   52  A    between atoms: _123  and  _124
REMARK   53  A    between atoms: _124  and  _125
REMARK   54  A    between atoms: _129  and  _131
REMARK   55  A    between atoms: _131  and  _132
REMARK   56  A    between atoms: _131  and  _134
REMARK   57  A    between atoms: _134  and  _135
REMARK   58  A    between atoms: _135  and  _136
REMARK   59  A    between atoms: _138  and  _140
REMARK   60  A    between atoms: _140  and  _141
REMARK   61  A    between atoms: _140  and  _143
REMARK   62  A    between atoms: _143  and  _144
REMARK   63  A    between atoms: _147  and  _149
REMARK   64  A    between atoms: _149  and  _150
REMARK   65  A    between atoms: _152  and  _154
REMARK   66  A    between atoms: _154  and  _155
REMARK   67  A    between atoms: _157  and  _159
REMARK   68  A    between atoms: _159  and  _160
REMARK   69  A    between atoms: _159  and  _162
REMARK   70  A    between atoms: _162  and  _163
REMARK   71  A    between atoms: _166  and  _168
REMARK   72  A    between atoms: _168  and  _169
REMARK   73  A    between atoms: _171  and  _173
REMARK   74  A    between atoms: _173  and  _174
REMARK   75  A    between atoms: _176  and  _178
REMARK   76  A    between atoms: _178  and  _179
REMARK   77  A    between atoms: _178  and  _181
REMARK   78  A    between atoms: _181  and  _182
REMARK   79  A    between atoms: _188  and  _190
REMARK   80  A    between atoms: _190  and  _191
REMARK   81  A    between atoms: _190  and  _193
REMARK   82  A    between atoms: _193  and  _194
REMARK   83  A    between atoms: _197  and  _199
REMARK   84  A    between atoms: _199  and  _200
REMARK   85  A    between atoms: _199  and  _202
REMARK   86  A    between atoms: _205  and  _207
REMARK   87  A    between atoms: _207  and  _208
REMARK   88  A    between atoms: _207  and  _210
REMARK   89  A    between atoms: _210  and  _211
REMARK   90  A    between atoms: _215  and  _216
REMARK   91  A    between atoms: _221  and  _223
REMARK   92  A    between atoms: _223  and  _224
REMARK   93  A    between atoms: _223  and  _226
REMARK   94  A    between atoms: _226  and  _227
REMARK   95  A    between atoms: _231  and  _232
REMARK   96  A    between atoms: _237  and  _239
REMARK   97  A    between atoms: _239  and  _240
REMARK   98  A    between atoms: _239  and  _242
REMARK   99  A    between atoms: _245  and  _247
REMARK  100  A    between atoms: _247  and  _248
REMARK  101  A    between atoms: _247  and  _250
REMARK  102  A    between atoms: _250  and  _251
REMARK  103  A    between atoms: _256  and  _258
REMARK  104  A    between atoms: _258  and  _259
REMARK  105  A    between atoms: _258  and  _261
REMARK  106  A    between atoms: _261  and  _262
REMARK  107  A    between atoms: _265  and  _267
REMARK  108  A    between atoms: _267  and  _268
REMARK  109  A    between atoms: _267  and  _270
REMARK  110  A    between atoms: _270  and  _271
REMARK  111  A    between atoms: _274  and  _276
REMARK  112  A    between atoms: _276  and  _277
REMARK  113  A    between atoms: _279  and  _281
REMARK  114  A    between atoms: _281  and  _282
REMARK  115  A    between atoms: _281  and  _284
REMARK  116  A    between atoms: _284  and  _285
REMARK  117  A    between atoms: _285  and  _286
REMARK  118  A    between atoms: _286  and  _287
REMARK  119  A    between atoms: _296  and  _298
REMARK  120  A    between atoms: _298  and  _299
REMARK  121  A    between atoms: _298  and  _301
REMARK  122  A    between atoms: _301  and  _302
REMARK  123  A    between atoms: _307  and  _309
REMARK  124  A    between atoms: _309  and  _310
REMARK  125  A    between atoms: _309  and  _312
REMARK  126  A    between atoms: _312  and  _313
REMARK  127  A    between atoms: _313  and  _314
REMARK  128  A    between atoms: _314  and  _315
REMARK  129  A    between atoms: _324  and  _326
REMARK  130  A    between atoms: _326  and  _327
REMARK  131  A    between atoms: _326  and  _329
REMARK  132  A    between atoms: _329  and  _330
REMARK  133  A    between atoms: _333  and  _335
REMARK  134  A    between atoms: _335  and  _336
REMARK  135  A    between atoms: _335  and  _338
REMARK  136  A    between atoms: _338  and  _339
REMARK  137  A    between atoms: _342  and  _344
REMARK  138  A    between atoms: _344  and  _345
REMARK  139  A    between atoms: _344  and  _347
REMARK  140  A    between atoms: _347  and  _348
REMARK  141  A    between atoms: _351  and  _353
REMARK  142  A    between atoms: _353  and  _354
REMARK  143  A    between atoms: _353  and  _356
REMARK  144  A    between atoms: _356  and  _357
REMARK  145  A    between atoms: _360  and  _362
REMARK  146  A    between atoms: _362  and  _363
REMARK  147  A    between atoms: _365  and  _367
REMARK  148  A    between atoms: _367  and  _368
REMARK  149  A    between atoms: _371  and  _373
REMARK  150  A    between atoms: _373  and  _374
REMARK  151  A    between atoms: _373  and  _376
REMARK  152  A    between atoms: _376  and  _377
REMARK  153  A    between atoms: _380  and  _382
REMARK  154  A    between atoms: _382  and  _383
REMARK  155  A    between atoms: _382  and  _385
REMARK  156  A    between atoms: _385  and  _386
REMARK  157  A    between atoms: _389  and  _391
REMARK  158  A    between atoms: _391  and  _392
REMARK  159  A    between atoms: _391  and  _394
REMARK  160  A    between atoms: _394  and  _395
REMARK  161  A    between atoms: _398  and  _400
REMARK  162  A    between atoms: _400  and  _401
REMARK  163  A    between atoms: _400  and  _403
REMARK  164  A    between atoms: _406  and  _408
REMARK  165  A    between atoms: _408  and  _409
REMARK  166  A    between atoms: _408  and  _411
REMARK  167  A    between atoms: _411  and  _412
REMARK  168  A    between atoms: _415  and  _417
REMARK  169  A    between atoms: _417  and  _418
REMARK  170  A    between atoms: _417  and  _420
REMARK  171  A    between atoms: _420  and  _421
REMARK  172  A    between atoms: _421  and  _422
REMARK  173  A    between atoms: _422  and  _423
REMARK  174  A    between atoms: _423  and  _424
REMARK  175  A    between atoms: _428  and  _430
REMARK  176  A    between atoms: _430  and  _431
REMARK  177  A    between atoms: _430  and  _433
REMARK  178  A    between atoms: _433  and  _434
REMARK  179  A    between atoms: _434  and  _435
REMARK  180  A    between atoms: _437  and  _439
REMARK  181  A    between atoms: _439  and  _440
REMARK  182  A    between atoms: _439  and  _442
REMARK  183  A    between atoms: _442  and  _443
REMARK  184  A    between atoms: _446  and  _448
REMARK  185  A    between atoms: _448  and  _449
REMARK  186  A    between atoms: _451  and  _453
REMARK  187  A    between atoms: _453  and  _454
REMARK  188  A    between atoms: _456  and  _458
REMARK  189  A    between atoms: _458  and  _459
REMARK  190  A    between atoms: _458  and  _461
REMARK  191  A    between atoms: _461  and  _462
REMARK  192  A    between atoms: _465  and  _467
REMARK  193  A    between atoms: _467  and  _468
REMARK  194  A    between atoms: _470  and  _472
REMARK  195  A    between atoms: _472  and  _473
REMARK  196  A    between atoms: _475  and  _477
REMARK  197  A    between atoms: _477  and  _478
REMARK  198  A    between atoms: _477  and  _480
REMARK  199  A    between atoms: _480  and  _481
REMARK  200  A    between atoms: _487  and  _489
REMARK  201  A    between atoms: _489  and  _490
REMARK  202  A    between atoms: _489  and  _492
REMARK  203  A    between atoms: _492  and  _493
REMARK  204  A    between atoms: _496  and  _498
REMARK  205  A    between atoms: _498  and  _499
REMARK  206  A    between atoms: _498  and  _501
REMARK  207  A    between atoms: _504  and  _506
REMARK  208  A    between atoms: _506  and  _507
REMARK  209  A    between atoms: _506  and  _509
REMARK  210  A    between atoms: _509  and  _510
REMARK  211  A    between atoms: _513  and  _515
REMARK  212  A    between atoms: _515  and  _516
REMARK  213  A    between atoms: _515  and  _518
REMARK  214  A    between atoms: _518  and  _519
REMARK  215  A    between atoms: _523  and  _524
REMARK  216  A    between atoms: _529  and  _531
REMARK  217  A    between atoms: _531  and  _532
REMARK  218  A    between atoms: _531  and  _534
REMARK  219  A    between atoms: _537  and  _539
REMARK  220  A    between atoms: _539  and  _540
REMARK  221  A    between atoms: _539  and  _542
REMARK  222  A    between atoms: _542  and  _543
REMARK  223  A    between atoms: _548  and  _550
REMARK  224  A    between atoms: _550  and  _551
REMARK  225  A    between atoms: _550  and  _553
REMARK  226  A    between atoms: _553  and  _554
REMARK  227  A    between atoms: _557  and  _559
REMARK  228  A    between atoms: _559  and  _560
REMARK  229  A    between atoms: _559  and  _562
REMARK  230  A    between atoms: _562  and  _563
REMARK  231  A    between atoms: _566  and  _568
REMARK  232  A    between atoms: _568  and  _569
REMARK  233  A    between atoms: _571  and  _573
REMARK  234  A    between atoms: _573  and  _574
REMARK  235  A    between atoms: _573  and  _576
REMARK  236  A    between atoms: _576  and  _577
REMARK  237  A    between atoms: _577  and  _578
REMARK  238  A    between atoms: _578  and  _579
REMARK  239  A    between atoms: _588  and  _590
REMARK  240  A    between atoms: _590  and  _591
REMARK  241  A    between atoms: _590  and  _593
REMARK  242  A    between atoms: _593  and  _594
REMARK                            x       y       z     vdW  Elec       q    Type
REMARK                         _______ _______ _______ _____ _____    ______ ____
ROOT
ATOM      1  C   GLY A   5      21.626  19.567  17.471  0.00  0.00    +0.243 C 
ATOM      2  N   ILE A   6      20.426  19.148  17.822  0.00  0.00    -0.297 N 
ATOM      3  H   ILE A   6      19.637  19.822  17.892  0.00  0.00    +0.150 HD
ATOM      4  O   GLY A   5      22.580  18.808  17.443  0.00  0.00    -0.273 OA
ENDROOT
BRANCH   1   5
ATOM      5  CA  GLY A   5      21.735  21.023  17.116  0.00  0.00    +0.176 C 
BRANCH   5   8
ATOM      6  C   GLY A   4      23.444  22.385  16.113  0.00  0.00    +0.243 C 
ATOM      7  O   GLY A   4      23.068  23.371  16.737  0.00  0.00    -0.273 OA
ATOM      8  N   GLY A   5      22.843  21.229  16.240  0.00  0.00    -0.295 N 
ATOM      9  H   GLY A   5      23.188  20.425  15.678  0.00  0.00    +0.150 HD
BRANCH   6  10
ATOM     10  CA  GLY A   4      24.626  22.402  15.206  0.00  0.00    +0.176 C 
BRANCH  10  12
ATOM     11  C   ILE A   3      24.997  23.664  13.180  0.00  0.00    +0.241 C 
ATOM     12  N   GLY A   4      24.872  23.636  14.498  0.00  0.00    -0.295 N 
ATOM     13  H   GLY A   4      24.953  24.523  15.035  0.00  0.00    +0.150 HD
ATOM     14  O   ILE A   3      24.808  22.671  12.472  0.00  0.00    -0.273 OA
BRANCH  11  15
ATOM     15  CA  ILE A   3      25.358  25.030  12.608  0.00  0.00    +0.149 C 
BRANCH  15  18
ATOM     16  C   MET A   2      27.439  25.320  11.319  0.00  0.00    +0.241 C 
ATOM     17  O   MET A   2      27.893  26.122  12.141  0.00  0.00    -0.273 OA
ATOM     18  N   ILE A   3      26.239  24.790  11.434  0.00  0.00    -0.297 N 
ATOM     19  H   ILE A   3      25.892  24.176  10.670  0.00  0.00    +0.150 HD
BRANCH  16  20
ATOM     20  CA  MET A   2      28.257  24.947  10.112  0.00  0.00    +0.149 C 
BRANCH  20  22
ATOM     21  C   LYS A   1      28.446  26.603   8.293  0.00  0.00    +0.238 C 
ATOM     22  N   MET A   2      28.795  26.156   9.524  0.00  0.00    -0.297 N 
ATOM     23  H   MET A   2      29.483  26.709  10.074  0.00  0.00    +0.150 HD
ATOM     24  O   LYS A   1      27.753  25.945   7.515  0.00  0.00    -0.274 OA
BRANCH  21  25
ATOM     25  CA  LYS A   1      28.902  28.006   7.903  0.00  0.00    +0.145 C 
BRANCH  25  26
ATOM     26  N   LYS A   1      29.016  28.045   6.467  0.00  0.00    -0.238 NA
ATOM     27  H   LYS A   1      28.392  27.426   5.911  0.00  0.00    +0.142 HD
ENDBRANCH  25  26
BRANCH  25  28
ATOM     28  CB  LYS A   1      27.917  29.073   8.393  0.00  0.00    +0.026 C 
BRANCH  28  29
ATOM     29  CG  LYS A   1      27.809  29.294   9.878  0.00  0.00    -0.000 C 
BRANCH  29  30
ATOM     30  CD  LYS A   1      26.825  30.373  10.224  0.00  0.00    -0.024 C 
BRANCH  30  31
ATOM     31  CE  LYS A   1      26.563  30.600  11.687  0.00  0.00    -0.086 C 
BRANCH  31  32
ATOM     32  NZ  LYS A   1      27.732  31.240  12.282  0.00  0.00    +0.380 N 
ATOM     33  HZ1 LYS A   1      27.560  31.401  13.295  0.00  0.00    -0.089 HD
ATOM     34  HZ2 LYS A   1      28.561  30.623  12.164  0.00  0.00    -0.089 HD
ATOM     35  HZ3 LYS A   1      27.905  32.150  11.810  0.00  0.00    -0.089 HD
ENDBRANCH  31  32
ENDBRANCH  30  31
ENDBRANCH  29  30
ENDBRANCH  28  29
ENDBRANCH  25  28
ENDBRANCH  21  25
ENDBRANCH  20  22
BRANCH  20  36
ATOM     36  CB  MET A   2      29.381  24.012  10.576  0.00  0.00    +0.041 C 
BRANCH  36  37
ATOM     37  CG  MET A   2      30.152  23.334   9.462  0.00  0.00    +0.060 C 
BRANCH  37  38
ATOM     38  SD  MET A   2      29.227  21.947   8.775  0.00  0.00    -0.139 S 
ATOM     39  CE  MET A   2      29.888  20.654   9.926  0.00  0.00    +0.069 C 
ENDBRANCH  37  38
ENDBRANCH  36  37
ENDBRANCH  20  36
ENDBRANCH  16  20
ENDBRANCH  15  18
BRANCH  15  40
ATOM     40  CB  ILE A   3      24.154  25.883  12.279  0.00  0.00    +0.027 C 
ATOM     41  CG2 ILE A   3      24.590  27.303  11.876  0.00  0.00    +0.002 C 
BRANCH  40  42
ATOM     42  CG1 ILE A   3      23.234  25.272  11.247  0.00  0.00    +0.002 C 
ATOM     43  CD1 ILE A   3      21.937  26.001  11.046  0.00  0.00    +0.000 C 
ENDBRANCH  40  42
ENDBRANCH  15  40
ENDBRANCH  11  15
ENDBRANCH  10  12
ENDBRANCH   6  10
ENDBRANCH   5   8
ENDBRANCH   1   5
BRANCH   2  44
ATOM     44  CA  ILE A   6      20.212  17.741  18.111  0.00  0.00    +0.149 C 
BRANCH  44  45
ATOM     45  C   ILE A   6      20.573  16.941  16.840  0.00  0.00    +0.241 C 
ATOM     46  N   GLY A   7      21.341  15.896  17.007  0.00  0.00    -0.295 N 
ATOM     47  H   GLY A   7      21.646  15.665  17.974  0.00  0.00    +0.150 HD
ATOM     48  O   ILE A   6      20.125  17.254  15.743  0.00  0.00    -0.273 OA
BRANCH  46  49
ATOM     49  CA  GLY A   7      21.786  15.055  15.949  0.00  0.00    +0.176 C 
BRANCH  49  50
ATOM     50  C   GLY A   7      22.991  15.540  15.226  0.00  0.00    +0.243 C 
ATOM     51  N   GLY A   8      23.564  16.671  15.573  0.00  0.00    -0.295 N 
ATOM     52  H   GLY A   8      23.114  17.272  16.293  0.00  0.00    +0.150 HD
ATOM     53  O   GLY A   7      23.412  14.825  14.332  0.00  0.00    -0.273 OA
BRANCH  51  54
ATOM     54  CA  GLY A   8      24.829  17.101  14.962  0.00  0.00    +0.176 C 
BRANCH  54  55
ATOM     55  C   GLY A   8      24.650  18.368  14.117  0.00  0.00    +0.243 C 
ATOM     56  O   GLY A   8      23.785  19.189  14.345  0.00  0.00    -0.273 OA
ATOM     57  N   PHE A   9      25.541  18.521  13.153  0.00  0.00    -0.297 N 
ATOM     58  H   PHE A   9      26.158  17.714  12.929  0.00  0.00    +0.150 HD
BRANCH  57  59
ATOM     59  CA  PHE A   9      25.714  19.734  12.391  0.00  0.00    +0.153 C 
BRANCH  59  60
ATOM     60  C   PHE A   9      25.276  19.596  10.958  0.00  0.00    +0.241 C 
ATOM     61  O   PHE A   9      25.354  18.481  10.381  0.00  0.00    -0.273 OA
ATOM     62  N   ILE A  10      24.856  20.699  10.370  0.00  0.00    -0.298 N 
ATOM     63  H   ILE A  10      24.652  21.532  10.959  0.00  0.00    +0.150 HD
BRANCH  62  64
ATOM     64  CA  ILE A  10      24.663  20.800   8.908  0.00  0.00    +0.137 C 
BRANCH  64  65
ATOM     65  CB  ILE A  10      23.191  20.927   8.518  0.00  0.00    +0.026 C 
ATOM     66  CG2 ILE A  10      22.443  19.651   8.887  0.00  0.00    +0.002 C 
BRANCH  65  67
ATOM     67  CG1 ILE A  10      22.496  22.182   9.048  0.00  0.00    +0.002 C 
ATOM     68  CD1 ILE A  10      21.134  22.462   8.428  0.00  0.00    +0.000 C 
ENDBRANCH  65  67
ENDBRANCH  64  65
BRANCH  64  69
ATOM     69  C   ILE A  10      25.452  21.998   8.401  0.00  0.00    +0.227 C 
ATOM     70  O   ILE A  10      25.683  22.991   9.090  0.00  0.00    -0.286 OA
ENDBRANCH  64  69
ENDBRANCH  62  64
ENDBRANCH  59  60
BRANCH  59  71
ATOM     71  CB  PHE A   9      27.167  20.217  12.426  0.00  0.00    +0.055 C 
BRANCH  71  72
ATOM     72  CG  PHE A   9      27.616  20.807  13.742  0.00  0.00    -0.020 A 
ATOM     73  CD2 PHE A   9      27.844  19.957  14.845  0.00  0.00    -0.004 A 
ATOM     74  CE2 PHE A   9      28.259  20.506  16.021  0.00  0.00    -0.000 A 
ATOM     75  CZ  PHE A   9      28.436  21.872  16.178  0.00  0.00    -0.000 A 
ATOM     76  CE1 PHE A   9      28.200  22.708  15.107  0.00  0.00    -0.000 A 
ATOM     77  CD1 PHE A   9      27.829  22.138  13.895  0.00  0.00    -0.004 A 
ENDBRANCH  71  72
ENDBRANCH  59  71
ENDBRANCH  57  59
ENDBRANCH  54  55
ENDBRANCH  51  54
ENDBRANCH  49  50
ENDBRANCH  46  49
ENDBRANCH  44  45
BRANCH  44  78
ATOM     78  CB  ILE A   6      18.792  17.505  18.630  0.00  0.00    +0.027 C 
ATOM     79  CG2 ILE A   6      18.359  16.015  18.518  0.00  0.00    +0.002 C 
BRANCH  78  80
ATOM     80  CG1 ILE A   6      18.673  17.934  20.111  0.00  0.00    +0.002 C 
ATOM     81  CD1 ILE A   6      17.352  17.973  20.744  0.00  0.00    +0.000 C 
ENDBRANCH  78  80
ENDBRANCH  44  78
ENDBRANCH   2  44
TORSDOF 36
REMARK  Name = ../refined-set-2016/4zip/4zip_pocket.pdb
REMARK  242 active torsions:
REMARK  status: ('A' for Active; 'I' for Inactive)
REMARK    1  A    between atoms: _1  and  _3
REMARK    2  A    between atoms: _3  and  _4
REMARK    3  A    between atoms: _3  and  _6
REMARK    4  A    between atoms: _6  and  _7
REMARK    5  A    between atoms: _7  and  _8
REMARK    6  A    between atoms: _8  and  _9
REMARK    7  A    between atoms: _19  and  _20
REMARK    8  A    between atoms: _25  and  _27
REMARK    9  A    between atoms: _27  and  _28
REMARK   10  A    between atoms: _27  and  _30
REMARK   11  A    between atoms: _30  and  _31
REMARK   12  A    between atoms: _34  and  _36
REMARK   13  A    between atoms: _36  and  _37
REMARK   14  A    between atoms: _36  and  _39
REMARK   15  A    between atoms: _39  and  _40
REMARK   16  A    between atoms: _43  and  _45
REMARK   17  A    between atoms: _45  and  _46
REMARK   18  A    between atoms: _45  and  _48
REMARK   19  A    between atoms: _48  and  _49
REMARK   20  A    between atoms: _52  and  _54
REMARK   21  A    between atoms: _54  and  _55
REMARK   22  A    between atoms: _54  and  _57
REMARK   23  A    between atoms: _57  and  _58
REMARK   24  A    between atoms: _61  and  _63
REMARK   25  A    between atoms: _63  and  _64
REMARK   26  A    between atoms: _63  and  _66
REMARK   27  A    between atoms: _66  and  _67
REMARK   28  A    between atoms: _70  and  _72
REMARK   29  A    between atoms: _72  and  _73
REMARK   30  A    between atoms: _75  and  _77
REMARK   31  A    between atoms: _77  and  _78
REMARK   32  A    between atoms: _81  and  _83
REMARK   33  A    between atoms: _83  and  _84
REMARK   34  A    between atoms: _83  and  _86
REMARK   35  A    between atoms: _86  and  _87
REMARK   36  A    between atoms: _90  and  _92
REMARK   37  A    between atoms: _92  and  _93
REMARK   38  A    between atoms: _92  and  _95
REMARK   39  A    between atoms: _95  and  _96
REMARK   40  A    between atoms: _99  and  _101
REMARK   41  A    between atoms: _101  and  _102
REMARK   42  A    between atoms: _101  and  _104
REMARK   43  A    between atoms: _104  and  _105
REMARK   44  A    between atoms: _108  and  _110
REMARK   45  A    between atoms: _110  and  _111
REMARK   46  A    between atoms: _110  and  _113
REMARK   47  A    between atoms: _116  and  _118
REMARK   48  A    between atoms: _118  and  _119
REMARK   49  A    between atoms: _118  and  _121
REMARK   50  A    between atoms: _121  and  _122
REMARK   51  A    between atoms: _122  and  _123
REMARK   52  A    between atoms: _123  and  _124
REMARK   53  A    between atoms: _124  and  _125
REMARK   54  A    between atoms: _129  and  _131
REMARK   55  A    between atoms: _131  and  _132
REMARK   56  A    between atoms: _131  and  _134
REMARK   57  A    between atoms: _134  and  _135
REMARK   58  A    between atoms: _135  and  _136
REMARK   59  A    between atoms: _138  and  _140
REMARK   60  A    between atoms: _140  and  _141
REMARK   61  A    between atoms: _140  and  _143
REMARK   62  A    between atoms: _143  and  _144
REMARK   63  A    between atoms: _147  and  _149
REMARK   64  A    between atoms: _149  and  _150
REMARK   65  A    between atoms: _152  and  _154
REMARK   66  A    between atoms: _154  and  _155
REMARK   67  A    between atoms: _157  and  _159
REMARK   68  A    between atoms: _159  and  _160
REMARK   69  A    between atoms: _159  and  _162
REMARK   70  A    between atoms: _162  and  _163
REMARK   71  A    between atoms: _166  and  _168
REMARK   72  A    between atoms: _168  and  _169
REMARK   73  A    between atoms: _171  and  _173
REMARK   74  A    between atoms: _173  and  _174
REMARK   75  A    between atoms: _176  and  _178
REMARK   76  A    between atoms: _178  and  _179
REMARK   77  A    between atoms: _178  and  _181
REMARK   78  A    between atoms: _181  and  _182
REMARK   79  A    between atoms: _188  and  _190
REMARK   80  A    between atoms: _190  and  _191
REMARK   81  A    between atoms: _190  and  _193
REMARK   82  A    between atoms: _193  and  _194
REMARK   83  A    between atoms: _197  and  _199
REMARK   84  A    between atoms: _199  and  _200
REMARK   85  A    between atoms: _199  and  _202
REMARK   86  A    between atoms: _205  and  _207
REMARK   87  A    between atoms: _207  and  _208
REMARK   88  A    between atoms: _207  and  _210
REMARK   89  A    between atoms: _210  and  _211
REMARK   90  A    between atoms: _215  and  _216
REMARK   91  A    between atoms: _221  and  _223
REMARK   92  A    between atoms: _223  and  _224
REMARK   93  A    between atoms: _223  and  _226
REMARK   94  A    between atoms: _226  and  _227
REMARK   95  A    between atoms: _231  and  _232
REMARK   96  A    between atoms: _237  and  _239
REMARK   97  A    between atoms: _239  and  _240
REMARK   98  A    between atoms: _239  and  _242
REMARK   99  A    between atoms: _245  and  _247
REMARK  100  A    between atoms: _247  and  _248
REMARK  101  A    between atoms: _247  and  _250
REMARK  102  A    between atoms: _250  and  _251
REMARK  103  A    between atoms: _256  and  _258
REMARK  104  A    between atoms: _258  and  _259
REMARK  105  A    between atoms: _258  and  _261
REMARK  106  A    between atoms: _261  and  _262
REMARK  107  A    between atoms: _265  and  _267
REMARK  108  A    between atoms: _267  and  _268
REMARK  109  A    between atoms: _267  and  _270
REMARK  110  A    between atoms: _270  and  _271
REMARK  111  A    between atoms: _274  and  _276
REMARK  112  A    between atoms: _276  and  _277
REMARK  113  A    between atoms: _279  and  _281
REMARK  114  A    between atoms: _281  and  _282
REMARK  115  A    between atoms: _281  and  _284
REMARK  116  A    between atoms: _284  and  _285
REMARK  117  A    between atoms: _285  and  _286
REMARK  118  A    between atoms: _286  and  _287
REMARK  119  A    between atoms: _296  and  _298
REMARK  120  A    between atoms: _298  and  _299
REMARK  121  A    between atoms: _298  and  _301
REMARK  122  A    between atoms: _301  and  _302
REMARK  123  A    between atoms: _307  and  _309
REMARK  124  A    between atoms: _309  and  _310
REMARK  125  A    between atoms: _309  and  _312
REMARK  126  A    between atoms: _312  and  _313
REMARK  127  A    between atoms: _313  and  _314
REMARK  128  A    between atoms: _314  and  _315
REMARK  129  A    between atoms: _324  and  _326
REMARK  130  A    between atoms: _326  and  _327
REMARK  131  A    between atoms: _326  and  _329
REMARK  132  A    between atoms: _329  and  _330
REMARK  133  A    between atoms: _333  and  _335
REMARK  134  A    between atoms: _335  and  _336
REMARK  135  A    between atoms: _335  and  _338
REMARK  136  A    between atoms: _338  and  _339
REMARK  137  A    between atoms: _342  and  _344
REMARK  138  A    between atoms: _344  and  _345
REMARK  139  A    between atoms: _344  and  _347
REMARK  140  A    between atoms: _347  and  _348
REMARK  141  A    between atoms: _351  and  _353
REMARK  142  A    between atoms: _353  and  _354
REMARK  143  A    between atoms: _353  and  _356
REMARK  144  A    between atoms: _356  and  _357
REMARK  145  A    between atoms: _360  and  _362
REMARK  146  A    between atoms: _362  and  _363
REMARK  147  A    between atoms: _365  and  _367
REMARK  148  A    between atoms: _367  and  _368
REMARK  149  A    between atoms: _371  and  _373
REMARK  150  A    between atoms: _373  and  _374
REMARK  151  A    between atoms: _373  and  _376
REMARK  152  A    between atoms: _376  and  _377
REMARK  153  A    between atoms: _380  and  _382
REMARK  154  A    between atoms: _382  and  _383
REMARK  155  A    between atoms: _382  and  _385
REMARK  156  A    between atoms: _385  and  _386
REMARK  157  A    between atoms: _389  and  _391
REMARK  158  A    between atoms: _391  and  _392
REMARK  159  A    between atoms: _391  and  _394
REMARK  160  A    between atoms: _394  and  _395
REMARK  161  A    between atoms: _398  and  _400
REMARK  162  A    between atoms: _400  and  _401
REMARK  163  A    between atoms: _400  and  _403
REMARK  164  A    between atoms: _406  and  _408
REMARK  165  A    between atoms: _408  and  _409
REMARK  166  A    between atoms: _408  and  _411
REMARK  167  A    between atoms: _411  and  _412
REMARK  168  A    between atoms: _415  and  _417
REMARK  169  A    between atoms: _417  and  _418
REMARK  170  A    between atoms: _417  and  _420
REMARK  171  A    between atoms: _420  and  _421
REMARK  172  A    between atoms: _421  and  _422
REMARK  173  A    between atoms: _422  and  _423
REMARK  174  A    between atoms: _423  and  _424
REMARK  175  A    between atoms: _428  and  _430
REMARK  176  A    between atoms: _430  and  _431
REMARK  177  A    between atoms: _430  and  _433
REMARK  178  A    between atoms: _433  and  _434
REMARK  179  A    between atoms: _434  and  _435
REMARK  180  A    between atoms: _437  and  _439
REMARK  181  A    between atoms: _439  and  _440
REMARK  182  A    between atoms: _439  and  _442
REMARK  183  A    between atoms: _442  and  _443
REMARK  184  A    between atoms: _446  and  _448
REMARK  185  A    between atoms: _448  and  _449
REMARK  186  A    between atoms: _451  and  _453
REMARK  187  A    between atoms: _453  and  _454
REMARK  188  A    between atoms: _456  and  _458
REMARK  189  A    between atoms: _458  and  _459
REMARK  190  A    between atoms: _458  and  _461
REMARK  191  A    between atoms: _461  and  _462
REMARK  192  A    between atoms: _465  and  _467
REMARK  193  A    between atoms: _467  and  _468
REMARK  194  A    between atoms: _470  and  _472
REMARK  195  A    between atoms: _472  and  _473
REMARK  196  A    between atoms: _475  and  _477
REMARK  197  A    between atoms: _477  and  _478
REMARK  198  A    between atoms: _477  and  _480
REMARK  199  A    between atoms: _480  and  _481
REMARK  200  A    between atoms: _487  and  _489
REMARK  201  A    between atoms: _489  and  _490
REMARK  202  A    between atoms: _489  and  _492
REMARK  203  A    between atoms: _492  and  _493
REMARK  204  A    between atoms: _496  and  _498
REMARK  205  A    between atoms: _498  and  _499
REMARK  206  A    between atoms: _498  and  _501
REMARK  207  A    between atoms: _504  and  _506
REMARK  208  A    between atoms: _506  and  _507
REMARK  209  A    between atoms: _506  and  _509
REMARK  210  A    between atoms: _509  and  _510
REMARK  211  A    between atoms: _513  and  _515
REMARK  212  A    between atoms: _515  and  _516
REMARK  213  A    between atoms: _515  and  _518
REMARK  214  A    between atoms: _518  and  _519
REMARK  215  A    between atoms: _523  and  _524
REMARK  216  A    between atoms: _529  and  _531
REMARK  217  A    between atoms: _531  and  _532
REMARK  218  A    between atoms: _531  and  _534
REMARK  219  A    between atoms: _537  and  _539
REMARK  220  A    between atoms: _539  and  _540
REMARK  221  A    between atoms: _539  and  _542
REMARK  222  A    between atoms: _542  and  _543
REMARK  223  A    between atoms: _548  and  _550
REMARK  224  A    between atoms: _550  and  _551
REMARK  225  A    between atoms: _550  and  _553
REMARK  226  A    between atoms: _553  and  _554
REMARK  227  A    between atoms: _557  and  _559
REMARK  228  A    between atoms: _559  and  _560
REMARK  229  A    between atoms: _559  and  _562
REMARK  230  A    between atoms: _562  and  _563
REMARK  231  A    between atoms: _566  and  _568
REMARK  232  A    between atoms: _568  and  _569
REMARK  233  A    between atoms: _571  and  _573
REMARK  234  A    between atoms: _573  and  _574
REMARK  235  A    between atoms: _573  and  _576
REMARK  236  A    between atoms: _576  and  _577
REMARK  237  A    between atoms: _577  and  _578
REMARK  238  A    between atoms: _578  and  _579
REMARK  239  A    between atoms: _588  and  _590
REMARK  240  A    between atoms: _590  and  _591
REMARK  241  A    between atoms: _590  and  _593
REMARK  242  A    between atoms: _593  and  _594
REMARK                            x       y       z     vdW  Elec       q    Type
REMARK                         _______ _______ _______ _____ _____    ______ ____
ROOT
ATOM      1  CA  VAL A   1      24.633  26.106   5.328  0.00  0.00    +0.133 C 
ENDROOT
BRANCH   1   2
ATOM      2  CB  VAL A   1      23.736  26.707   6.420  0.00  0.00    +0.023 C 
ATOM      3  CG2 VAL A   1      24.539  27.480   7.467  0.00  0.00    +0.002 C 
ATOM      4  CG1 VAL A   1      22.918  25.615   7.076  0.00  0.00    +0.002 C 
ENDBRANCH   1   2
BRANCH   1   5
ATOM      5  N   VAL A   1      25.557  25.127   5.867  0.00  0.00    -0.239 NA
ATOM      6  H   VAL A   1      26.386  25.480   6.385  0.00  0.00    +0.142 HD
ENDBRANCH   1   5
BRANCH   1   7
ATOM      7  C   VAL A   1      25.432  27.200   4.612  0.00  0.00    +0.224 C 
ATOM      8  O   VAL A   1      26.644  27.365   4.789  0.00  0.00    -0.287 OA
ENDBRANCH   1   7
TORSDOF 3
REMARK  Name = ../refined-set-2016/4zip/4zip_pocket.pdb
REMARK  242 active torsions:
REMARK  status: ('A' for Active; 'I' for Inactive)
REMARK    1  A    between atoms: _1  and  _3
REMARK    2  A    between atoms: _3  and  _4
REMARK    3  A    between atoms: _3  and  _6
REMARK    4  A    between atoms: _6  and  _7
REMARK    5  A    between atoms: _7  and  _8
REMARK    6  A    between atoms: _8  and  _9
REMARK    7  A    between atoms: _19  and  _20
REMARK    8  A    between atoms: _25  and  _27
REMARK    9  A    between atoms: _27  and  _28
REMARK   10  A    between atoms: _27  and  _30
REMARK   11  A    between atoms: _30  and  _31
REMARK   12  A    between atoms: _34  and  _36
REMARK   13  A    between atoms: _36  and  _37
REMARK   14  A    between atoms: _36  and  _39
REMARK   15  A    between atoms: _39  and  _40
REMARK   16  A    between atoms: _43  and  _45
REMARK   17  A    between atoms: _45  and  _46
REMARK   18  A    between atoms: _45  and  _48
REMARK   19  A    between atoms: _48  and  _49
REMARK   20  A    between atoms: _52  and  _54
REMARK   21  A    between atoms: _54  and  _55
REMARK   22  A    between atoms: _54  and  _57
REMARK   23  A    between atoms: _57  and  _58
REMARK   24  A    between atoms: _61  and  _63
REMARK   25  A    between atoms: _63  and  _64
REMARK   26  A    between atoms: _63  and  _66
REMARK   27  A    between atoms: _66  and  _67
REMARK   28  A    between atoms: _70  and  _72
REMARK   29  A    between atoms: _72  and  _73
REMARK   30  A    between atoms: _75  and  _77
REMARK   31  A    between atoms: _77  and  _78
REMARK   32  A    between atoms: _81  and  _83
REMARK   33  A    between atoms: _83  and  _84
REMARK   34  A    between atoms: _83  and  _86
REMARK   35  A    between atoms: _86  and  _87
REMARK   36  A    between atoms: _90  and  _92
REMARK   37  A    between atoms: _92  and  _93
REMARK   38  A    between atoms: _92  and  _95
REMARK   39  A    between atoms: _95  and  _96
REMARK   40  A    between atoms: _99  and  _101
REMARK   41  A    between atoms: _101  and  _102
REMARK   42  A    between atoms: _101  and  _104
REMARK   43  A    between atoms: _104  and  _105
REMARK   44  A    between atoms: _108  and  _110
REMARK   45  A    between atoms: _110  and  _111
REMARK   46  A    between atoms: _110  and  _113
REMARK   47  A    between atoms: _116  and  _118
REMARK   48  A    between atoms: _118  and  _119
REMARK   49  A    between atoms: _118  and  _121
REMARK   50  A    between atoms: _121  and  _122
REMARK   51  A    between atoms: _122  and  _123
REMARK   52  A    between atoms: _123  and  _124
REMARK   53  A    between atoms: _124  and  _125
REMARK   54  A    between atoms: _129  and  _131
REMARK   55  A    between atoms: _131  and  _132
REMARK   56  A    between atoms: _131  and  _134
REMARK   57  A    between atoms: _134  and  _135
REMARK   58  A    between atoms: _135  and  _136
REMARK   59  A    between atoms: _138  and  _140
REMARK   60  A    between atoms: _140  and  _141
REMARK   61  A    between atoms: _140  and  _143
REMARK   62  A    between atoms: _143  and  _144
REMARK   63  A    between atoms: _147  and  _149
REMARK   64  A    between atoms: _149  and  _150
REMARK   65  A    between atoms: _152  and  _154
REMARK   66  A    between atoms: _154  and  _155
REMARK   67  A    between atoms: _157  and  _159
REMARK   68  A    between atoms: _159  and  _160
REMARK   69  A    between atoms: _159  and  _162
REMARK   70  A    between atoms: _162  and  _163
REMARK   71  A    between atoms: _166  and  _168
REMARK   72  A    between atoms: _168  and  _169
REMARK   73  A    between atoms: _171  and  _173
REMARK   74  A    between atoms: _173  and  _174
REMARK   75  A    between atoms: _176  and  _178
REMARK   76  A    between atoms: _178  and  _179
REMARK   77  A    between atoms: _178  and  _181
REMARK   78  A    between atoms: _181  and  _182
REMARK   79  A    between atoms: _188  and  _190
REMARK   80  A    between atoms: _190  and  _191
REMARK   81  A    between atoms: _190  and  _193
REMARK   82  A    between atoms: _193  and  _194
REMARK   83  A    between atoms: _197  and  _199
REMARK   84  A    between atoms: _199  and  _200
REMARK   85  A    between atoms: _199  and  _202
REMARK   86  A    between atoms: _205  and  _207
REMARK   87  A    between atoms: _207  and  _208
REMARK   88  A    between atoms: _207  and  _210
REMARK   89  A    between atoms: _210  and  _211
REMARK   90  A    between atoms: _215  and  _216
REMARK   91  A    between atoms: _221  and  _223
REMARK   92  A    between atoms: _223  and  _224
REMARK   93  A    between atoms: _223  and  _226
REMARK   94  A    between atoms: _226  and  _227
REMARK   95  A    between atoms: _231  and  _232
REMARK   96  A    between atoms: _237  and  _239
REMARK   97  A    between atoms: _239  and  _240
REMARK   98  A    between atoms: _239  and  _242
REMARK   99  A    between atoms: _245  and  _247
REMARK  100  A    between atoms: _247  and  _248
REMARK  101  A    between atoms: _247  and  _250
REMARK  102  A    between atoms: _250  and  _251
REMARK  103  A    between atoms: _256  and  _258
REMARK  104  A    between atoms: _258  and  _259
REMARK  105  A    between atoms: _258  and  _261
REMARK  106  A    between atoms: _261  and  _262
REMARK  107  A    between atoms: _265  and  _267
REMARK  108  A    between atoms: _267  and  _268
REMARK  109  A    between atoms: _267  and  _270
REMARK  110  A    between atoms: _270  and  _271
REMARK  111  A    between atoms: _274  and  _276
REMARK  112  A    between atoms: _276  and  _277
REMARK  113  A    between atoms: _279  and  _281
REMARK  114  A    between atoms: _281  and  _282
REMARK  115  A    between atoms: _281  and  _284
REMARK  116  A    between atoms: _284  and  _285
REMARK  117  A    between atoms: _285  and  _286
REMARK  118  A    between atoms: _286  and  _287
REMARK  119  A    between atoms: _296  and  _298
REMARK  120  A    between atoms: _298  and  _299
REMARK  121  A    between atoms: _298  and  _301
REMARK  122  A    between atoms: _301  and  _302
REMARK  123  A    between atoms: _307  and  _309
REMARK  124  A    between atoms: _309  and  _310
REMARK  125  A    between atoms: _309  and  _312
REMARK  126  A    between atoms: _312  and  _313
REMARK  127  A    between atoms: _313  and  _314
REMARK  128  A    between atoms: _314  and  _315
REMARK  129  A    between atoms: _324  and  _326
REMARK  130  A    between atoms: _326  and  _327
REMARK  131  A    between atoms: _326  and  _329
REMARK  132  A    between atoms: _329  and  _330
REMARK  133  A    between atoms: _333  and  _335
REMARK  134  A    between atoms: _335  and  _336
REMARK  135  A    between atoms: _335  and  _338
REMARK  136  A    between atoms: _338  and  _339
REMARK  137  A    between atoms: _342  and  _344
REMARK  138  A    between atoms: _344  and  _345
REMARK  139  A    between atoms: _344  and  _347
REMARK  140  A    between atoms: _347  and  _348
REMARK  141  A    between atoms: _351  and  _353
REMARK  142  A    between atoms: _353  and  _354
REMARK  143  A    between atoms: _353  and  _356
REMARK  144  A    between atoms: _356  and  _357
REMARK  145  A    between atoms: _360  and  _362
REMARK  146  A    between atoms: _362  and  _363
REMARK  147  A    between atoms: _365  and  _367
REMARK  148  A    between atoms: _367  and  _368
REMARK  149  A    between atoms: _371  and  _373
REMARK  150  A    between atoms: _373  and  _374
REMARK  151  A    between atoms: _373  and  _376
REMARK  152  A    between atoms: _376  and  _377
REMARK  153  A    between atoms: _380  and  _382
REMARK  154  A    between atoms: _382  and  _383
REMARK  155  A    between atoms: _382  and  _385
REMARK  156  A    between atoms: _385  and  _386
REMARK  157  A    between atoms: _389  and  _391
REMARK  158  A    between atoms: _391  and  _392
REMARK  159  A    between atoms: _391  and  _394
REMARK  160  A    between atoms: _394  and  _395
REMARK  161  A    between atoms: _398  and  _400
REMARK  162  A    between atoms: _400  and  _401
REMARK  163  A    between atoms: _400  and  _403
REMARK  164  A    between atoms: _406  and  _408
REMARK  165  A    between atoms: _408  and  _409
REMARK  166  A    between atoms: _408  and  _411
REMARK  167  A    between atoms: _411  and  _412
REMARK  168  A    between atoms: _415  and  _417
REMARK  169  A    between atoms: _417  and  _418
REMARK  170  A    between atoms: _417  and  _420
REMARK  171  A    between atoms: _420  and  _421
REMARK  172  A    between atoms: _421  and  _422
REMARK  173  A    between atoms: _422  and  _423
REMARK  174  A    between atoms: _423  and  _424
REMARK  175  A    between atoms: _428  and  _430
REMARK  176  A    between atoms: _430  and  _431
REMARK  177  A    between atoms: _430  and  _433
REMARK  178  A    between atoms: _433  and  _434
REMARK  179  A    between atoms: _434  and  _435
REMARK  180  A    between atoms: _437  and  _439
REMARK  181  A    between atoms: _439  and  _440
REMARK  182  A    between atoms: _439  and  _442
REMARK  183  A    between atoms: _442  and  _443
REMARK  184  A    between atoms: _446  and  _448
REMARK  185  A    between atoms: _448  and  _449
REMARK  186  A    between atoms: _451  and  _453
REMARK  187  A    between atoms: _453  and  _454
REMARK  188  A    between atoms: _456  and  _458
REMARK  189  A    between atoms: _458  and  _459
REMARK  190  A    between atoms: _458  and  _461
REMARK  191  A    between atoms: _461  and  _462
REMARK  192  A    between atoms: _465  and  _467
REMARK  193  A    between atoms: _467  and  _468
REMARK  194  A    between atoms: _470  and  _472
REMARK  195  A    between atoms: _472  and  _473
REMARK  196  A    between atoms: _475  and  _477
REMARK  197  A    between atoms: _477  and  _478
REMARK  198  A    between atoms: _477  and  _480
REMARK  199  A    between atoms: _480  and  _481
REMARK  200  A    between atoms: _487  and  _489
REMARK  201  A    between atoms: _489  and  _490
REMARK  202  A    between atoms: _489  and  _492
REMARK  203  A    between atoms: _492  and  _493
REMARK  204  A    between atoms: _496  and  _498
REMARK  205  A    between atoms: _498  and  _499
REMARK  206  A    between atoms: _498  and  _501
REMARK  207  A    between atoms: _504  and  _506
REMARK  208  A    between atoms: _506  and  _507
REMARK  209  A    between atoms: _506  and  _509
REMARK  210  A    between atoms: _509  and  _510
REMARK  211  A    between atoms: _513  and  _515
REMARK  212  A    between atoms: _515  and  _516
REMARK  213  A    between atoms: _515  and  _518
REMARK  214  A    between atoms: _518  and  _519
REMARK  215  A    between atoms: _523  and  _524
REMARK  216  A    between atoms: _529  and  _531
REMARK  217  A    between atoms: _531  and  _532
REMARK  218  A    between atoms: _531  and  _534
REMARK  219  A    between atoms: _537  and  _539
REMARK  220  A    between atoms: _539  and  _540
REMARK  221  A    between atoms: _539  and  _542
REMARK  222  A    between atoms: _542  and  _543
REMARK  223  A    between atoms: _548  and  _550
REMARK  224  A    between atoms: _550  and  _551
REMARK  225  A    between atoms: _550  and  _553
REMARK  226  A    between atoms: _553  and  _554
REMARK  227  A    between atoms: _557  and  _559
REMARK  228  A    between atoms: _559  and  _560
REMARK  229  A    between atoms: _559  and  _562
REMARK  230  A    between atoms: _562  and  _563
REMARK  231  A    between atoms: _566  and  _568
REMARK  232  A    between atoms: _568  and  _569
REMARK  233  A    between atoms: _571  and  _573
REMARK  234  A    between atoms: _573  and  _574
REMARK  235  A    between atoms: _573  and  _576
REMARK  236  A    between atoms: _576  and  _577
REMARK  237  A    between atoms: _577  and  _578
REMARK  238  A    between atoms: _578  and  _579
REMARK  239  A    between atoms: _588  and  _590
REMARK  240  A    between atoms: _590  and  _591
REMARK  241  A    between atoms: _590  and  _593
REMARK  242  A    between atoms: _593  and  _594
REMARK                            x       y       z     vdW  Elec       q    Type
REMARK                         _______ _______ _______ _____ _____    ______ ____
ROOT
ATOM      1  CA  LEU A   1      21.216  30.728   6.623  0.00  0.00    +0.133 C 
ENDROOT
BRANCH   1   2
ATOM      2  N   LEU A   1      20.466  31.931   6.958  0.00  0.00    -0.239 NA
ATOM      3  H   LEU A   1      19.802  31.899   7.758  0.00  0.00    +0.142 HD
ENDBRANCH   1   2
BRANCH   1   4
ATOM      4  C   LEU A   1      20.380  29.854   5.740  0.00  0.00    +0.224 C 
ATOM      5  O   LEU A   1      19.193  29.681   6.033  0.00  0.00    -0.287 OA
ENDBRANCH   1   4
BRANCH   1   6
ATOM      6  CB  LEU A   1      21.623  29.999   7.900  0.00  0.00    +0.025 C 
BRANCH   6   7
ATOM      7  CG  LEU A   1      22.322  30.859   8.944  0.00  0.00    +0.002 C 
ATOM      8  CD2 LEU A   1      22.681  30.014  10.160  0.00  0.00    +0.000 C 
ATOM      9  CD1 LEU A   1      23.531  31.559   8.411  0.00  0.00    +0.000 C 
ENDBRANCH   6   7
ENDBRANCH   1   6
TORSDOF 4
REMARK  Name = ../refined-set-2016/4zip/4zip_pocket.pdb
REMARK  242 active torsions:
REMARK  status: ('A' for Active; 'I' for Inactive)
REMARK    1  A    between atoms: _1  and  _3
REMARK    2  A    between atoms: _3  and  _4
REMARK    3  A    between atoms: _3  and  _6
REMARK    4  A    between atoms: _6  and  _7
REMARK    5  A    between atoms: _7  and  _8
REMARK    6  A    between atoms: _8  and  _9
REMARK    7  A    between atoms: _19  and  _20
REMARK    8  A    between atoms: _25  and  _27
REMARK    9  A    between atoms: _27  and  _28
REMARK   10  A    between atoms: _27  and  _30
REMARK   11  A    between atoms: _30  and  _31
REMARK   12  A    between atoms: _34  and  _36
REMARK   13  A    between atoms: _36  and  _37
REMARK   14  A    between atoms: _36  and  _39
REMARK   15  A    between atoms: _39  and  _40
REMARK   16  A    between atoms: _43  and  _45
REMARK   17  A    between atoms: _45  and  _46
REMARK   18  A    between atoms: _45  and  _48
REMARK   19  A    between atoms: _48  and  _49
REMARK   20  A    between atoms: _52  and  _54
REMARK   21  A    between atoms: _54  and  _55
REMARK   22  A    between atoms: _54  and  _57
REMARK   23  A    between atoms: _57  and  _58
REMARK   24  A    between atoms: _61  and  _63
REMARK   25  A    between atoms: _63  and  _64
REMARK   26  A    between atoms: _63  and  _66
REMARK   27  A    between atoms: _66  and  _67
REMARK   28  A    between atoms: _70  and  _72
REMARK   29  A    between atoms: _72  and  _73
REMARK   30  A    between atoms: _75  and  _77
REMARK   31  A    between atoms: _77  and  _78
REMARK   32  A    between atoms: _81  and  _83
REMARK   33  A    between atoms: _83  and  _84
REMARK   34  A    between atoms: _83  and  _86
REMARK   35  A    between atoms: _86  and  _87
REMARK   36  A    between atoms: _90  and  _92
REMARK   37  A    between atoms: _92  and  _93
REMARK   38  A    between atoms: _92  and  _95
REMARK   39  A    between atoms: _95  and  _96
REMARK   40  A    between atoms: _99  and  _101
REMARK   41  A    between atoms: _101  and  _102
REMARK   42  A    between atoms: _101  and  _104
REMARK   43  A    between atoms: _104  and  _105
REMARK   44  A    between atoms: _108  and  _110
REMARK   45  A    between atoms: _110  and  _111
REMARK   46  A    between atoms: _110  and  _113
REMARK   47  A    between atoms: _116  and  _118
REMARK   48  A    between atoms: _118  and  _119
REMARK   49  A    between atoms: _118  and  _121
REMARK   50  A    between atoms: _121  and  _122
REMARK   51  A    between atoms: _122  and  _123
REMARK   52  A    between atoms: _123  and  _124
REMARK   53  A    between atoms: _124  and  _125
REMARK   54  A    between atoms: _129  and  _131
REMARK   55  A    between atoms: _131  and  _132
REMARK   56  A    between atoms: _131  and  _134
REMARK   57  A    between atoms: _134  and  _135
REMARK   58  A    between atoms: _135  and  _136
REMARK   59  A    between atoms: _138  and  _140
REMARK   60  A    between atoms: _140  and  _141
REMARK   61  A    between atoms: _140  and  _143
REMARK   62  A    between atoms: _143  and  _144
REMARK   63  A    between atoms: _147  and  _149
REMARK   64  A    between atoms: _149  and  _150
REMARK   65  A    between atoms: _152  and  _154
REMARK   66  A    between atoms: _154  and  _155
REMARK   67  A    between atoms: _157  and  _159
REMARK   68  A    between atoms: _159  and  _160
REMARK   69  A    between atoms: _159  and  _162
REMARK   70  A    between atoms: _162  and  _163
REMARK   71  A    between atoms: _166  and  _168
REMARK   72  A    between atoms: _168  and  _169
REMARK   73  A    between atoms: _171  and  _173
REMARK   74  A    between atoms: _173  and  _174
REMARK   75  A    between atoms: _176  and  _178
REMARK   76  A    between atoms: _178  and  _179
REMARK   77  A    between atoms: _178  and  _181
REMARK   78  A    between atoms: _181  and  _182
REMARK   79  A    between atoms: _188  and  _190
REMARK   80  A    between atoms: _190  and  _191
REMARK   81  A    between atoms: _190  and  _193
REMARK   82  A    between atoms: _193  and  _194
REMARK   83  A    between atoms: _197  and  _199
REMARK   84  A    between atoms: _199  and  _200
REMARK   85  A    between atoms: _199  and  _202
REMARK   86  A    between atoms: _205  and  _207
REMARK   87  A    between atoms: _207  and  _208
REMARK   88  A    between atoms: _207  and  _210
REMARK   89  A    between atoms: _210  and  _211
REMARK   90  A    between atoms: _215  and  _216
REMARK   91  A    between atoms: _221  and  _223
REMARK   92  A    between atoms: _223  and  _224
REMARK   93  A    between atoms: _223  and  _226
REMARK   94  A    between atoms: _226  and  _227
REMARK   95  A    between atoms: _231  and  _232
REMARK   96  A    between atoms: _237  and  _239
REMARK   97  A    between atoms: _239  and  _240
REMARK   98  A    between atoms: _239  and  _242
REMARK   99  A    between atoms: _245  and  _247
REMARK  100  A    between atoms: _247  and  _248
REMARK  101  A    between atoms: _247  and  _250
REMARK  102  A    between atoms: _250  and  _251
REMARK  103  A    between atoms: _256  and  _258
REMARK  104  A    between atoms: _258  and  _259
REMARK  105  A    between atoms: _258  and  _261
REMARK  106  A    between atoms: _261  and  _262
REMARK  107  A    between atoms: _265  and  _267
REMARK  108  A    between atoms: _267  and  _268
REMARK  109  A    between atoms: _267  and  _270
REMARK  110  A    between atoms: _270  and  _271
REMARK  111  A    between atoms: _274  and  _276
REMARK  112  A    between atoms: _276  and  _277
REMARK  113  A    between atoms: _279  and  _281
REMARK  114  A    between atoms: _281  and  _282
REMARK  115  A    between atoms: _281  and  _284
REMARK  116  A    between atoms: _284  and  _285
REMARK  117  A    between atoms: _285  and  _286
REMARK  118  A    between atoms: _286  and  _287
REMARK  119  A    between atoms: _296  and  _298
REMARK  120  A    between atoms: _298  and  _299
REMARK  121  A    between atoms: _298  and  _301
REMARK  122  A    between atoms: _301  and  _302
REMARK  123  A    between atoms: _307  and  _309
REMARK  124  A    between atoms: _309  and  _310
REMARK  125  A    between atoms: _309  and  _312
REMARK  126  A    between atoms: _312  and  _313
REMARK  127  A    between atoms: _313  and  _314
REMARK  128  A    between atoms: _314  and  _315
REMARK  129  A    between atoms: _324  and  _326
REMARK  130  A    between atoms: _326  and  _327
REMARK  131  A    between atoms: _326  and  _329
REMARK  132  A    between atoms: _329  and  _330
REMARK  133  A    between atoms: _333  and  _335
REMARK  134  A    between atoms: _335  and  _336
REMARK  135  A    between atoms: _335  and  _338
REMARK  136  A    between atoms: _338  and  _339
REMARK  137  A    between atoms: _342  and  _344
REMARK  138  A    between atoms: _344  and  _345
REMARK  139  A    between atoms: _344  and  _347
REMARK  140  A    between atoms: _347  and  _348
REMARK  141  A    between atoms: _351  and  _353
REMARK  142  A    between atoms: _353  and  _354
REMARK  143  A    between atoms: _353  and  _356
REMARK  144  A    between atoms: _356  and  _357
REMARK  145  A    between atoms: _360  and  _362
REMARK  146  A    between atoms: _362  and  _363
REMARK  147  A    between atoms: _365  and  _367
REMARK  148  A    between atoms: _367  and  _368
REMARK  149  A    between atoms: _371  and  _373
REMARK  150  A    between atoms: _373  and  _374
REMARK  151  A    between atoms: _373  and  _376
REMARK  152  A    between atoms: _376  and  _377
REMARK  153  A    between atoms: _380  and  _382
REMARK  154  A    between atoms: _382  and  _383
REMARK  155  A    between atoms: _382  and  _385
REMARK  156  A    between atoms: _385  and  _386
REMARK  157  A    between atoms: _389  and  _391
REMARK  158  A    between atoms: _391  and  _392
REMARK  159  A    between atoms: _391  and  _394
REMARK  160  A    between atoms: _394  and  _395
REMARK  161  A    between atoms: _398  and  _400
REMARK  162  A    between atoms: _400  and  _401
REMARK  163  A    between atoms: _400  and  _403
REMARK  164  A    between atoms: _406  and  _408
REMARK  165  A    between atoms: _408  and  _409
REMARK  166  A    between atoms: _408  and  _411
REMARK  167  A    between atoms: _411  and  _412
REMARK  168  A    between atoms: _415  and  _417
REMARK  169  A    between atoms: _417  and  _418
REMARK  170  A    between atoms: _417  and  _420
REMARK  171  A    between atoms: _420  and  _421
REMARK  172  A    between atoms: _421  and  _422
REMARK  173  A    between atoms: _422  and  _423
REMARK  174  A    between atoms: _423  and  _424
REMARK  175  A    between atoms: _428  and  _430
REMARK  176  A    between atoms: _430  and  _431
REMARK  177  A    between atoms: _430  and  _433
REMARK  178  A    between atoms: _433  and  _434
REMARK  179  A    between atoms: _434  and  _435
REMARK  180  A    between atoms: _437  and  _439
REMARK  181  A    between atoms: _439  and  _440
REMARK  182  A    between atoms: _439  and  _442
REMARK  183  A    between atoms: _442  and  _443
REMARK  184  A    between atoms: _446  and  _448
REMARK  185  A    between atoms: _448  and  _449
REMARK  186  A    between atoms: _451  and  _453
REMARK  187  A    between atoms: _453  and  _454
REMARK  188  A    between atoms: _456  and  _458
REMARK  189  A    between atoms: _458  and  _459
REMARK  190  A    between atoms: _458  and  _461
REMARK  191  A    between atoms: _461  and  _462
REMARK  192  A    between atoms: _465  and  _467
REMARK  193  A    between atoms: _467  and  _468
REMARK  194  A    between atoms: _470  and  _472
REMARK  195  A    between atoms: _472  and  _473
REMARK  196  A    between atoms: _475  and  _477
REMARK  197  A    between atoms: _477  and  _478
REMARK  198  A    between atoms: _477  and  _480
REMARK  199  A    between atoms: _480  and  _481
REMARK  200  A    between atoms: _487  and  _489
REMARK  201  A    between atoms: _489  and  _490
REMARK  202  A    between atoms: _489  and  _492
REMARK  203  A    between atoms: _492  and  _493
REMARK  204  A    between atoms: _496  and  _498
REMARK  205  A    between atoms: _498  and  _499
REMARK  206  A    between atoms: _498  and  _501
REMARK  207  A    between atoms: _504  and  _506
REMARK  208  A    between atoms: _506  and  _507
REMARK  209  A    between atoms: _506  and  _509
REMARK  210  A    between atoms: _509  and  _510
REMARK  211  A    between atoms: _513  and  _515
REMARK  212  A    between atoms: _515  and  _516
REMARK  213  A    between atoms: _515  and  _518
REMARK  214  A    between atoms: _518  and  _519
REMARK  215  A    between atoms: _523  and  _524
REMARK  216  A    between atoms: _529  and  _531
REMARK  217  A    between atoms: _531  and  _532
REMARK  218  A    between atoms: _531  and  _534
REMARK  219  A    between atoms: _537  and  _539
REMARK  220  A    between atoms: _539  and  _540
REMARK  221  A    between atoms: _539  and  _542
REMARK  222  A    between atoms: _542  and  _543
REMARK  223  A    between atoms: _548  and  _550
REMARK  224  A    between atoms: _550  and  _551
REMARK  225  A    between atoms: _550  and  _553
REMARK  226  A    between atoms: _553  and  _554
REMARK  227  A    between atoms: _557  and  _559
REMARK  228  A    between atoms: _559  and  _560
REMARK  229  A    between atoms: _559  and  _562
REMARK  230  A    between atoms: _562  and  _563
REMARK  231  A    between atoms: _566  and  _568
REMARK  232  A    between atoms: _568  and  _569
REMARK  233  A    between atoms: _571  and  _573
REMARK  234  A    between atoms: _573  and  _574
REMARK  235  A    between atoms: _573  and  _576
REMARK  236  A    between atoms: _576  and  _577
REMARK  237  A    between atoms: _577  and  _578
REMARK  238  A    between atoms: _578  and  _579
REMARK  239  A    between atoms: _588  and  _590
REMARK  240  A    between atoms: _590  and  _591
REMARK  241  A    between atoms: _590  and  _593
REMARK  242  A    between atoms: _593  and  _594
REMARK                            x       y       z     vdW  Elec       q    Type
REMARK                         _______ _______ _______ _____ _____    ______ ____
ROOT
ATOM      1  CA  ILE A   6      13.179  28.423  11.316  0.00  0.00    +0.149 C 
ENDROOT
BRANCH   1   2
ATOM      2  C   ILE A   6      13.465  29.914  11.314  0.00  0.00    +0.241 C 
ATOM      3  N   ILE A   7      12.610  30.661  12.008  0.00  0.00    -0.297 N 
ATOM      4  H   ILE A   7      11.735  30.225  12.365  0.00  0.00    +0.150 HD
ATOM      5  O   ILE A   6      14.445  30.358  10.719  0.00  0.00    -0.273 OA
BRANCH   3   6
ATOM      6  CA  ILE A   7      12.864  32.093  12.289  0.00  0.00    +0.149 C 
BRANCH   6   7
ATOM      7  C   ILE A   7      13.487  32.159  13.668  0.00  0.00    +0.241 C 
ATOM      8  O   ILE A   7      12.851  31.821  14.670  0.00  0.00    -0.273 OA
ATOM      9  N   GLY A   8      14.774  32.508  13.708  0.00  0.00    -0.295 N 
ATOM     10  H   GLY A   8      15.259  32.762  12.824  0.00  0.00    +0.150 HD
BRANCH   9  11
ATOM     11  CA  GLY A   8      15.493  32.540  14.924  0.00  0.00    +0.176 C 
BRANCH  11  12
ATOM     12  C   GLY A   8      15.551  33.926  15.550  0.00  0.00    +0.243 C 
ATOM     13  N   ARG A   9      16.262  33.994  16.676  0.00  0.00    -0.297 N 
ATOM     14  H   ARG A   9      16.836  33.179  16.973  0.00  0.00    +0.150 HD
ATOM     15  O   GLY A   8      14.979  34.886  15.056  0.00  0.00    -0.273 OA
BRANCH  13  16
ATOM     16  CA  ARG A   9      16.243  35.195  17.491  0.00  0.00    +0.149 C 
BRANCH  16  17
ATOM     17  C   ARG A   9      16.729  36.426  16.745  0.00  0.00    +0.241 C 
ATOM     18  O   ARG A   9      16.294  37.539  17.012  0.00  0.00    -0.273 OA
ATOM     19  N   ASN A  10      17.672  36.275  15.794  0.00  0.00    -0.298 N 
ATOM     20  H   ASN A  10      18.019  35.321  15.570  0.00  0.00    +0.150 HD
BRANCH  19  21
ATOM     21  CA  ASN A  10      18.208  37.401  15.083  0.00  0.00    +0.146 C 
BRANCH  21  22
ATOM     22  C   ASN A  10      17.123  38.194  14.356  0.00  0.00    +0.227 C 
ATOM     23  O   ASN A  10      17.281  39.391  14.147  0.00  0.00    -0.286 OA
ENDBRANCH  21  22
BRANCH  21  24
ATOM     24  CB  ASN A  10      19.331  36.990  14.112  0.00  0.00    +0.112 C 
BRANCH  24  25
ATOM     25  CG  ASN A  10      18.825  36.269  12.872  0.00  0.00    +0.222 C 
ATOM     26  OD1 ASN A  10      18.078  35.290  12.957  0.00  0.00    -0.275 OA
ATOM     27  ND2 ASN A  10      19.163  36.814  11.730  0.00  0.00    -0.329 N 
ATOM     28 HD21 ASN A  10      19.796  37.639  11.715  0.00  0.00    +0.145 HD
ATOM     29 HD22 ASN A  10      18.798  36.422  10.839  0.00  0.00    +0.145 HD
ENDBRANCH  24  25
ENDBRANCH  21  24
ENDBRANCH  19  21
ENDBRANCH  16  17
BRANCH  16  30
ATOM     30  CB  ARG A   9      17.081  35.010  18.775  0.00  0.00    +0.033 C 
BRANCH  30  31
ATOM     31  CG  ARG A   9      16.471  34.015  19.733  0.00  0.00    +0.045 C 
BRANCH  31  32
ATOM     32  CD  ARG A   9      17.201  33.940  21.069  0.00  0.00    +0.174 C 
BRANCH  32  33
ATOM     33  NE  ARG A   9      18.618  33.570  20.912  0.00  0.00    -0.265 N 
ATOM     34  CZ  ARG A   9      19.673  34.390  20.871  0.00  0.00    +0.342 C 
ATOM     35  NH2 ARG A   9      19.563  35.701  21.036  0.00  0.00    -0.292 N 
ATOM     36 HH21 ARG A   9      18.630  36.127  21.205  0.00  0.00    +0.255 HD
ATOM     37 HH22 ARG A   9      20.410  36.303  20.997  0.00  0.00    +0.255 HD
ATOM     38  NH1 ARG A   9      20.869  33.881  20.666  0.00  0.00    -0.292 N 
ATOM     39 HH11 ARG A   9      21.701  34.505  20.631  0.00  0.00    +0.255 HD
ATOM     40 HH12 ARG A   9      20.983  32.855  20.539  0.00  0.00    +0.255 HD
ATOM     41  HE  ARG A   9      18.821  32.554  20.823  0.00  0.00    +0.259 HD
ENDBRANCH  32  33
ENDBRANCH  31  32
ENDBRANCH  30  31
ENDBRANCH  16  30
ENDBRANCH  13  16
ENDBRANCH  11  12
ENDBRANCH   9  11
ENDBRANCH   6   7
BRANCH   6  42
ATOM     42  CB  ILE A   7      11.602  32.953  12.222  0.00  0.00    +0.027 C 
ATOM     43  CG2 ILE A   7      11.964  34.396  12.547  0.00  0.00    +0.002 C 
BRANCH  42  44
ATOM     44  CG1 ILE A   7      10.896  32.863  10.881  0.00  0.00    +0.002 C 
ATOM     45  CD1 ILE A   7      11.837  33.135   9.679  0.00  0.00    +0.000 C 
ENDBRANCH  42  44
ENDBRANCH   6  42
ENDBRANCH   3   6
ENDBRANCH   1   2
BRANCH   1  48
ATOM     46  C   ASN A   5      12.021  27.239   9.516  0.00  0.00    +0.241 C 
ATOM     47  O   ASN A   5      10.991  27.062  10.170  0.00  0.00    -0.273 OA
ATOM     48  N   ILE A   6      13.047  27.918   9.956  0.00  0.00    -0.297 N 
ATOM     49  H   ILE A   6      13.822  28.111   9.290  0.00  0.00    +0.150 HD
BRANCH  46  50
ATOM     50  CA  ASN A   5      12.136  26.638   8.119  0.00  0.00    +0.158 C 
BRANCH  50  53
ATOM     51  C   VAL A   4      12.500  24.319   8.692  0.00  0.00    +0.241 C 
ATOM     52  O   VAL A   4      13.641  24.568   9.079  0.00  0.00    -0.273 OA
ATOM     53  N   ASN A   5      11.705  25.254   8.154  0.00  0.00    -0.297 N 
ATOM     54  H   ASN A   5      10.779  24.987   7.762  0.00  0.00    +0.150 HD
BRANCH  51  55
ATOM     55  CA  VAL A   4      11.903  22.940   8.809  0.00  0.00    +0.149 C 
BRANCH  55  57
ATOM     56  C   PRO A   3      12.874  20.735   8.184  0.00  0.00    +0.241 C 
ATOM     57  N   VAL A   4      12.995  21.962   8.669  0.00  0.00    -0.297 N 
ATOM     58  H   VAL A   4      13.942  22.260   8.977  0.00  0.00    +0.150 HD
ATOM     59  O   PRO A   3      11.776  20.290   7.815  0.00  0.00    -0.273 OA
BRANCH  56  65
ATOM     60  C   THR A   2      15.832  21.336   7.329  0.00  0.00    +0.246 C 
ATOM     61  N   PRO A   3      15.367  20.516   8.282  0.00  0.00    -0.272 N 
ATOM     62  CD  PRO A   3      16.071  20.090   9.491  0.00  0.00    +0.094 C 
ATOM     63  CG  PRO A   3      15.342  18.836   9.882  0.00  0.00    +0.024 C 
ATOM     64  CB  PRO A   3      13.990  18.891   9.320  0.00  0.00    +0.031 C 
ATOM     65  CA  PRO A   3      14.091  19.839   8.093  0.00  0.00    +0.152 C 
ATOM     66  O   THR A   2      15.190  21.484   6.298  0.00  0.00    -0.273 OA
BRANCH  60  67
ATOM     67  CA  THR A   2      17.141  22.053   7.527  0.00  0.00    +0.176 C 
BRANCH  67  70
ATOM     68  C   PRO A   1      18.545  21.073   5.846  0.00  0.00    +0.239 C 
ATOM     69  O   PRO A   1      18.662  20.044   6.484  0.00  0.00    -0.274 OA
ATOM     70  N   THR A   2      17.893  22.094   6.300  0.00  0.00    -0.295 N 
ATOM     71  H   THR A   2      17.913  22.980   5.757  0.00  0.00    +0.150 HD
BRANCH  68  73
ATOM     72  N   PRO A   1      20.079  22.376   4.359  0.00  0.00    -0.210 NA
ATOM     73  CA  PRO A   1      19.175  21.220   4.461  0.00  0.00    +0.149 C 
ATOM     74  CB  PRO A   1      20.129  20.068   4.099  0.00  0.00    +0.028 C 
ATOM     75  CG  PRO A   1      21.433  20.505   4.691  0.00  0.00    +0.021 C 
ATOM     76  CD  PRO A   1      21.514  21.966   4.351  0.00  0.00    +0.089 C 
ENDBRANCH  68  73
ENDBRANCH  67  70
BRANCH  67  77
ATOM     77  CB  THR A   2      16.878  23.480   8.041  0.00  0.00    +0.137 C 
ATOM     78  CG2 THR A   2      16.185  24.405   7.066  0.00  0.00    +0.034 C 
BRANCH  77  79
ATOM     79  OG1 THR A   2      16.085  23.333   9.221  0.00  0.00    -0.382 OA
ATOM     80  HG1 THR A   2      15.885  24.227   9.596  0.00  0.00    +0.210 HD
ENDBRANCH  77  79
ENDBRANCH  67  77
ENDBRANCH  60  67
ENDBRANCH  56  65
ENDBRANCH  55  57
BRANCH  55  81
ATOM     81  CB  VAL A   4      11.207  22.741  10.157  0.00  0.00    +0.027 C 
ATOM     82  CG2 VAL A   4      12.174  22.968  11.302  0.00  0.00    +0.002 C 
ATOM     83  CG1 VAL A   4      10.007  23.622  10.389  0.00  0.00    +0.002 C 
ENDBRANCH  55  81
ENDBRANCH  51  55
ENDBRANCH  50  53
BRANCH  50  84
ATOM     84  CB  ASN A   5      11.272  27.427   7.145  0.00  0.00    +0.114 C 
BRANCH  84  85
ATOM     85  CG  ASN A   5      11.376  26.961   5.730  0.00  0.00    +0.222 C 
ATOM     86  OD1 ASN A   5      12.461  26.697   5.247  0.00  0.00    -0.275 OA
ATOM     87  ND2 ASN A   5      10.224  26.886   5.048  0.00  0.00    -0.329 N 
ATOM     88 HD21 ASN A   5       9.326  27.125   5.516  0.00  0.00    +0.145 HD
ATOM     89 HD22 ASN A   5      10.228  26.589   4.051  0.00  0.00    +0.145 HD
ENDBRANCH  84  85
ENDBRANCH  50  84
ENDBRANCH  46  50
ENDBRANCH   1  48
BRANCH   1  90
ATOM     90  CB  ILE A   6      14.376  27.696  12.000  0.00  0.00    +0.027 C 
ATOM     91  CG2 ILE A   6      14.748  28.347  13.316  0.00  0.00    +0.002 C 
BRANCH  90  92
ATOM     92  CG1 ILE A   6      14.088  26.199  12.096  0.00  0.00    +0.002 C 
ATOM     93  CD1 ILE A   6      15.320  25.339  12.388  0.00  0.00    +0.000 C 
ENDBRANCH  90  92
ENDBRANCH   1  90
TORSDOF 33
REMARK  Name = ../refined-set-2016/4zip/4zip_pocket.pdb
REMARK  242 active torsions:
REMARK  status: ('A' for Active; 'I' for Inactive)
REMARK    1  A    between atoms: _1  and  _3
REMARK    2  A    between atoms: _3  and  _4
REMARK    3  A    between atoms: _3  and  _6
REMARK    4  A    between atoms: _6  and  _7
REMARK    5  A    between atoms: _7  and  _8
REMARK    6  A    between atoms: _8  and  _9
REMARK    7  A    between atoms: _19  and  _20
REMARK    8  A    between atoms: _25  and  _27
REMARK    9  A    between atoms: _27  and  _28
REMARK   10  A    between atoms: _27  and  _30
REMARK   11  A    between atoms: _30  and  _31
REMARK   12  A    between atoms: _34  and  _36
REMARK   13  A    between atoms: _36  and  _37
REMARK   14  A    between atoms: _36  and  _39
REMARK   15  A    between atoms: _39  and  _40
REMARK   16  A    between atoms: _43  and  _45
REMARK   17  A    between atoms: _45  and  _46
REMARK   18  A    between atoms: _45  and  _48
REMARK   19  A    between atoms: _48  and  _49
REMARK   20  A    between atoms: _52  and  _54
REMARK   21  A    between atoms: _54  and  _55
REMARK   22  A    between atoms: _54  and  _57
REMARK   23  A    between atoms: _57  and  _58
REMARK   24  A    between atoms: _61  and  _63
REMARK   25  A    between atoms: _63  and  _64
REMARK   26  A    between atoms: _63  and  _66
REMARK   27  A    between atoms: _66  and  _67
REMARK   28  A    between atoms: _70  and  _72
REMARK   29  A    between atoms: _72  and  _73
REMARK   30  A    between atoms: _75  and  _77
REMARK   31  A    between atoms: _77  and  _78
REMARK   32  A    between atoms: _81  and  _83
REMARK   33  A    between atoms: _83  and  _84
REMARK   34  A    between atoms: _83  and  _86
REMARK   35  A    between atoms: _86  and  _87
REMARK   36  A    between atoms: _90  and  _92
REMARK   37  A    between atoms: _92  and  _93
REMARK   38  A    between atoms: _92  and  _95
REMARK   39  A    between atoms: _95  and  _96
REMARK   40  A    between atoms: _99  and  _101
REMARK   41  A    between atoms: _101  and  _102
REMARK   42  A    between atoms: _101  and  _104
REMARK   43  A    between atoms: _104  and  _105
REMARK   44  A    between atoms: _108  and  _110
REMARK   45  A    between atoms: _110  and  _111
REMARK   46  A    between atoms: _110  and  _113
REMARK   47  A    between atoms: _116  and  _118
REMARK   48  A    between atoms: _118  and  _119
REMARK   49  A    between atoms: _118  and  _121
REMARK   50  A    between atoms: _121  and  _122
REMARK   51  A    between atoms: _122  and  _123
REMARK   52  A    between atoms: _123  and  _124
REMARK   53  A    between atoms: _124  and  _125
REMARK   54  A    between atoms: _129  and  _131
REMARK   55  A    between atoms: _131  and  _132
REMARK   56  A    between atoms: _131  and  _134
REMARK   57  A    between atoms: _134  and  _135
REMARK   58  A    between atoms: _135  and  _136
REMARK   59  A    between atoms: _138  and  _140
REMARK   60  A    between atoms: _140  and  _141
REMARK   61  A    between atoms: _140  and  _143
REMARK   62  A    between atoms: _143  and  _144
REMARK   63  A    between atoms: _147  and  _149
REMARK   64  A    between atoms: _149  and  _150
REMARK   65  A    between atoms: _152  and  _154
REMARK   66  A    between atoms: _154  and  _155
REMARK   67  A    between atoms: _157  and  _159
REMARK   68  A    between atoms: _159  and  _160
REMARK   69  A    between atoms: _159  and  _162
REMARK   70  A    between atoms: _162  and  _163
REMARK   71  A    between atoms: _166  and  _168
REMARK   72  A    between atoms: _168  and  _169
REMARK   73  A    between atoms: _171  and  _173
REMARK   74  A    between atoms: _173  and  _174
REMARK   75  A    between atoms: _176  and  _178
REMARK   76  A    between atoms: _178  and  _179
REMARK   77  A    between atoms: _178  and  _181
REMARK   78  A    between atoms: _181  and  _182
REMARK   79  A    between atoms: _188  and  _190
REMARK   80  A    between atoms: _190  and  _191
REMARK   81  A    between atoms: _190  and  _193
REMARK   82  A    between atoms: _193  and  _194
REMARK   83  A    between atoms: _197  and  _199
REMARK   84  A    between atoms: _199  and  _200
REMARK   85  A    between atoms: _199  and  _202
REMARK   86  A    between atoms: _205  and  _207
REMARK   87  A    between atoms: _207  and  _208
REMARK   88  A    between atoms: _207  and  _210
REMARK   89  A    between atoms: _210  and  _211
REMARK   90  A    between atoms: _215  and  _216
REMARK   91  A    between atoms: _221  and  _223
REMARK   92  A    between atoms: _223  and  _224
REMARK   93  A    between atoms: _223  and  _226
REMARK   94  A    between atoms: _226  and  _227
REMARK   95  A    between atoms: _231  and  _232
REMARK   96  A    between atoms: _237  and  _239
REMARK   97  A    between atoms: _239  and  _240
REMARK   98  A    between atoms: _239  and  _242
REMARK   99  A    between atoms: _245  and  _247
REMARK  100  A    between atoms: _247  and  _248
REMARK  101  A    between atoms: _247  and  _250
REMARK  102  A    between atoms: _250  and  _251
REMARK  103  A    between atoms: _256  and  _258
REMARK  104  A    between atoms: _258  and  _259
REMARK  105  A    between atoms: _258  and  _261
REMARK  106  A    between atoms: _261  and  _262
REMARK  107  A    between atoms: _265  and  _267
REMARK  108  A    between atoms: _267  and  _268
REMARK  109  A    between atoms: _267  and  _270
REMARK  110  A    between atoms: _270  and  _271
REMARK  111  A    between atoms: _274  and  _276
REMARK  112  A    between atoms: _276  and  _277
REMARK  113  A    between atoms: _279  and  _281
REMARK  114  A    between atoms: _281  and  _282
REMARK  115  A    between atoms: _281  and  _284
REMARK  116  A    between atoms: _284  and  _285
REMARK  117  A    between atoms: _285  and  _286
REMARK  118  A    between atoms: _286  and  _287
REMARK  119  A    between atoms: _296  and  _298
REMARK  120  A    between atoms: _298  and  _299
REMARK  121  A    between atoms: _298  and  _301
REMARK  122  A    between atoms: _301  and  _302
REMARK  123  A    between atoms: _307  and  _309
REMARK  124  A    between atoms: _309  and  _310
REMARK  125  A    between atoms: _309  and  _312
REMARK  126  A    between atoms: _312  and  _313
REMARK  127  A    between atoms: _313  and  _314
REMARK  128  A    between atoms: _314  and  _315
REMARK  129  A    between atoms: _324  and  _326
REMARK  130  A    between atoms: _326  and  _327
REMARK  131  A    between atoms: _326  and  _329
REMARK  132  A    between atoms: _329  and  _330
REMARK  133  A    between atoms: _333  and  _335
REMARK  134  A    between atoms: _335  and  _336
REMARK  135  A    between atoms: _335  and  _338
REMARK  136  A    between atoms: _338  and  _339
REMARK  137  A    between atoms: _342  and  _344
REMARK  138  A    between atoms: _344  and  _345
REMARK  139  A    between atoms: _344  and  _347
REMARK  140  A    between atoms: _347  and  _348
REMARK  141  A    between atoms: _351  and  _353
REMARK  142  A    between atoms: _353  and  _354
REMARK  143  A    between atoms: _353  and  _356
REMARK  144  A    between atoms: _356  and  _357
REMARK  145  A    between atoms: _360  and  _362
REMARK  146  A    between atoms: _362  and  _363
REMARK  147  A    between atoms: _365  and  _367
REMARK  148  A    between atoms: _367  and  _368
REMARK  149  A    between atoms: _371  and  _373
REMARK  150  A    between atoms: _373  and  _374
REMARK  151  A    between atoms: _373  and  _376
REMARK  152  A    between atoms: _376  and  _377
REMARK  153  A    between atoms: _380  and  _382
REMARK  154  A    between atoms: _382  and  _383
REMARK  155  A    between atoms: _382  and  _385
REMARK  156  A    between atoms: _385  and  _386
REMARK  157  A    between atoms: _389  and  _391
REMARK  158  A    between atoms: _391  and  _392
REMARK  159  A    between atoms: _391  and  _394
REMARK  160  A    between atoms: _394  and  _395
REMARK  161  A    between atoms: _398  and  _400
REMARK  162  A    between atoms: _400  and  _401
REMARK  163  A    between atoms: _400  and  _403
REMARK  164  A    between atoms: _406  and  _408
REMARK  165  A    between atoms: _408  and  _409
REMARK  166  A    between atoms: _408  and  _411
REMARK  167  A    between atoms: _411  and  _412
REMARK  168  A    between atoms: _415  and  _417
REMARK  169  A    between atoms: _417  and  _418
REMARK  170  A    between atoms: _417  and  _420
REMARK  171  A    between atoms: _420  and  _421
REMARK  172  A    between atoms: _421  and  _422
REMARK  173  A    between atoms: _422  and  _423
REMARK  174  A    between atoms: _423  and  _424
REMARK  175  A    between atoms: _428  and  _430
REMARK  176  A    between atoms: _430  and  _431
REMARK  177  A    between atoms: _430  and  _433
REMARK  178  A    between atoms: _433  and  _434
REMARK  179  A    between atoms: _434  and  _435
REMARK  180  A    between atoms: _437  and  _439
REMARK  181  A    between atoms: _439  and  _440
REMARK  182  A    between atoms: _439  and  _442
REMARK  183  A    between atoms: _442  and  _443
REMARK  184  A    between atoms: _446  and  _448
REMARK  185  A    between atoms: _448  and  _449
REMARK  186  A    between atoms: _451  and  _453
REMARK  187  A    between atoms: _453  and  _454
REMARK  188  A    between atoms: _456  and  _458
REMARK  189  A    between atoms: _458  and  _459
REMARK  190  A    between atoms: _458  and  _461
REMARK  191  A    between atoms: _461  and  _462
REMARK  192  A    between atoms: _465  and  _467
REMARK  193  A    between atoms: _467  and  _468
REMARK  194  A    between atoms: _470  and  _472
REMARK  195  A    between atoms: _472  and  _473
REMARK  196  A    between atoms: _475  and  _477
REMARK  197  A    between atoms: _477  and  _478
REMARK  198  A    between atoms: _477  and  _480
REMARK  199  A    between atoms: _480  and  _481
REMARK  200  A    between atoms: _487  and  _489
REMARK  201  A    between atoms: _489  and  _490
REMARK  202  A    between atoms: _489  and  _492
REMARK  203  A    between atoms: _492  and  _493
REMARK  204  A    between atoms: _496  and  _498
REMARK  205  A    between atoms: _498  and  _499
REMARK  206  A    between atoms: _498  and  _501
REMARK  207  A    between atoms: _504  and  _506
REMARK  208  A    between atoms: _506  and  _507
REMARK  209  A    between atoms: _506  and  _509
REMARK  210  A    between atoms: _509  and  _510
REMARK  211  A    between atoms: _513  and  _515
REMARK  212  A    between atoms: _515  and  _516
REMARK  213  A    between atoms: _515  and  _518
REMARK  214  A    between atoms: _518  and  _519
REMARK  215  A    between atoms: _523  and  _524
REMARK  216  A    between atoms: _529  and  _531
REMARK  217  A    between atoms: _531  and  _532
REMARK  218  A    between atoms: _531  and  _534
REMARK  219  A    between atoms: _537  and  _539
REMARK  220  A    between atoms: _539  and  _540
REMARK  221  A    between atoms: _539  and  _542
REMARK  222  A    between atoms: _542  and  _543
REMARK  223  A    between atoms: _548  and  _550
REMARK  224  A    between atoms: _550  and  _551
REMARK  225  A    between atoms: _550  and  _553
REMARK  226  A    between atoms: _553  and  _554
REMARK  227  A    between atoms: _557  and  _559
REMARK  228  A    between atoms: _559  and  _560
REMARK  229  A    between atoms: _559  and  _562
REMARK  230  A    between atoms: _562  and  _563
REMARK  231  A    between atoms: _566  and  _568
REMARK  232  A    between atoms: _568  and  _569
REMARK  233  A    between atoms: _571  and  _573
REMARK  234  A    between atoms: _573  and  _574
REMARK  235  A    between atoms: _573  and  _576
REMARK  236  A    between atoms: _576  and  _577
REMARK  237  A    between atoms: _577  and  _578
REMARK  238  A    between atoms: _578  and  _579
REMARK  239  A    between atoms: _588  and  _590
REMARK  240  A    between atoms: _590  and  _591
REMARK  241  A    between atoms: _590  and  _593
REMARK  242  A    between atoms: _593  and  _594
REMARK                            x       y       z     vdW  Elec       q    Type
REMARK                         _______ _______ _______ _____ _____    ______ ____
ROOT
ATOM      1  NE  ARG A   1      22.934  30.542  22.497  0.00  0.00    -0.265 N 
ATOM      2  CZ  ARG A   1      24.175  30.072  22.415  0.00  0.00    +0.342 C 
ATOM      3  NH2 ARG A   1      24.844  29.645  23.464  0.00  0.00    -0.292 N 
ATOM      4 HH21 ARG A   1      24.404  29.667  24.406  0.00  0.00    +0.255 HD
ATOM      5 HH22 ARG A   1      25.813  29.286  23.352  0.00  0.00    +0.255 HD
ATOM      6  NH1 ARG A   1      24.748  30.030  21.212  0.00  0.00    -0.292 N 
ATOM      7 HH11 ARG A   1      25.718  29.668  21.110  0.00  0.00    +0.255 HD
ATOM      8 HH12 ARG A   1      24.225  30.359  20.375  0.00  0.00    +0.255 HD
ATOM      9  HE  ARG A   1      22.490  30.825  21.600  0.00  0.00    +0.259 HD
ENDROOT
BRANCH   1  10
ATOM     10  CD  ARG A   1      22.122  30.707  23.700  0.00  0.00    +0.174 C 
BRANCH  10  11
ATOM     11  CG  ARG A   1      21.112  31.805  23.502  0.00  0.00    +0.045 C 
BRANCH  11  12
ATOM     12  CB  ARG A   1      20.362  32.139  24.766  0.00  0.00    +0.029 C 
BRANCH  12  13
ATOM     13  CA  ARG A   1      19.367  33.289  24.595  0.00  0.00    +0.133 C 
BRANCH  13  14
ATOM     14  N   ARG A   1      20.057  34.542  24.453  0.00  0.00    -0.239 NA
ATOM     15  H   ARG A   1      21.097  34.563  24.457  0.00  0.00    +0.142 HD
ENDBRANCH  13  14
BRANCH  13  16
ATOM     16  C   ARG A   1      18.437  33.295  25.814  0.00  0.00    +0.224 C 
ATOM     17  O   ARG A   1      18.849  33.773  26.890  0.00  0.00    -0.287 OA
ENDBRANCH  13  16
ENDBRANCH  12  13
ENDBRANCH  11  12
ENDBRANCH  10  11
ENDBRANCH   1  10
TORSDOF 6
REMARK  Name = ../refined-set-2016/4zip/4zip_pocket.pdb
REMARK  242 active torsions:
REMARK  status: ('A' for Active; 'I' for Inactive)
REMARK    1  A    between atoms: _1  and  _3
REMARK    2  A    between atoms: _3  and  _4
REMARK    3  A    between atoms: _3  and  _6
REMARK    4  A    between atoms: _6  and  _7
REMARK    5  A    between atoms: _7  and  _8
REMARK    6  A    between atoms: _8  and  _9
REMARK    7  A    between atoms: _19  and  _20
REMARK    8  A    between atoms: _25  and  _27
REMARK    9  A    between atoms: _27  and  _28
REMARK   10  A    between atoms: _27  and  _30
REMARK   11  A    between atoms: _30  and  _31
REMARK   12  A    between atoms: _34  and  _36
REMARK   13  A    between atoms: _36  and  _37
REMARK   14  A    between atoms: _36  and  _39
REMARK   15  A    between atoms: _39  and  _40
REMARK   16  A    between atoms: _43  and  _45
REMARK   17  A    between atoms: _45  and  _46
REMARK   18  A    between atoms: _45  and  _48
REMARK   19  A    between atoms: _48  and  _49
REMARK   20  A    between atoms: _52  and  _54
REMARK   21  A    between atoms: _54  and  _55
REMARK   22  A    between atoms: _54  and  _57
REMARK   23  A    between atoms: _57  and  _58
REMARK   24  A    between atoms: _61  and  _63
REMARK   25  A    between atoms: _63  and  _64
REMARK   26  A    between atoms: _63  and  _66
REMARK   27  A    between atoms: _66  and  _67
REMARK   28  A    between atoms: _70  and  _72
REMARK   29  A    between atoms: _72  and  _73
REMARK   30  A    between atoms: _75  and  _77
REMARK   31  A    between atoms: _77  and  _78
REMARK   32  A    between atoms: _81  and  _83
REMARK   33  A    between atoms: _83  and  _84
REMARK   34  A    between atoms: _83  and  _86
REMARK   35  A    between atoms: _86  and  _87
REMARK   36  A    between atoms: _90  and  _92
REMARK   37  A    between atoms: _92  and  _93
REMARK   38  A    between atoms: _92  and  _95
REMARK   39  A    between atoms: _95  and  _96
REMARK   40  A    between atoms: _99  and  _101
REMARK   41  A    between atoms: _101  and  _102
REMARK   42  A    between atoms: _101  and  _104
REMARK   43  A    between atoms: _104  and  _105
REMARK   44  A    between atoms: _108  and  _110
REMARK   45  A    between atoms: _110  and  _111
REMARK   46  A    between atoms: _110  and  _113
REMARK   47  A    between atoms: _116  and  _118
REMARK   48  A    between atoms: _118  and  _119
REMARK   49  A    between atoms: _118  and  _121
REMARK   50  A    between atoms: _121  and  _122
REMARK   51  A    between atoms: _122  and  _123
REMARK   52  A    between atoms: _123  and  _124
REMARK   53  A    between atoms: _124  and  _125
REMARK   54  A    between atoms: _129  and  _131
REMARK   55  A    between atoms: _131  and  _132
REMARK   56  A    between atoms: _131  and  _134
REMARK   57  A    between atoms: _134  and  _135
REMARK   58  A    between atoms: _135  and  _136
REMARK   59  A    between atoms: _138  and  _140
REMARK   60  A    between atoms: _140  and  _141
REMARK   61  A    between atoms: _140  and  _143
REMARK   62  A    between atoms: _143  and  _144
REMARK   63  A    between atoms: _147  and  _149
REMARK   64  A    between atoms: _149  and  _150
REMARK   65  A    between atoms: _152  and  _154
REMARK   66  A    between atoms: _154  and  _155
REMARK   67  A    between atoms: _157  and  _159
REMARK   68  A    between atoms: _159  and  _160
REMARK   69  A    between atoms: _159  and  _162
REMARK   70  A    between atoms: _162  and  _163
REMARK   71  A    between atoms: _166  and  _168
REMARK   72  A    between atoms: _168  and  _169
REMARK   73  A    between atoms: _171  and  _173
REMARK   74  A    between atoms: _173  and  _174
REMARK   75  A    between atoms: _176  and  _178
REMARK   76  A    between atoms: _178  and  _179
REMARK   77  A    between atoms: _178  and  _181
REMARK   78  A    between atoms: _181  and  _182
REMARK   79  A    between atoms: _188  and  _190
REMARK   80  A    between atoms: _190  and  _191
REMARK   81  A    between atoms: _190  and  _193
REMARK   82  A    between atoms: _193  and  _194
REMARK   83  A    between atoms: _197  and  _199
REMARK   84  A    between atoms: _199  and  _200
REMARK   85  A    between atoms: _199  and  _202
REMARK   86  A    between atoms: _205  and  _207
REMARK   87  A    between atoms: _207  and  _208
REMARK   88  A    between atoms: _207  and  _210
REMARK   89  A    between atoms: _210  and  _211
REMARK   90  A    between atoms: _215  and  _216
REMARK   91  A    between atoms: _221  and  _223
REMARK   92  A    between atoms: _223  and  _224
REMARK   93  A    between atoms: _223  and  _226
REMARK   94  A    between atoms: _226  and  _227
REMARK   95  A    between atoms: _231  and  _232
REMARK   96  A    between atoms: _237  and  _239
REMARK   97  A    between atoms: _239  and  _240
REMARK   98  A    between atoms: _239  and  _242
REMARK   99  A    between atoms: _245  and  _247
REMARK  100  A    between atoms: _247  and  _248
REMARK  101  A    between atoms: _247  and  _250
REMARK  102  A    between atoms: _250  and  _251
REMARK  103  A    between atoms: _256  and  _258
REMARK  104  A    between atoms: _258  and  _259
REMARK  105  A    between atoms: _258  and  _261
REMARK  106  A    between atoms: _261  and  _262
REMARK  107  A    between atoms: _265  and  _267
REMARK  108  A    between atoms: _267  and  _268
REMARK  109  A    between atoms: _267  and  _270
REMARK  110  A    between atoms: _270  and  _271
REMARK  111  A    between atoms: _274  and  _276
REMARK  112  A    between atoms: _276  and  _277
REMARK  113  A    between atoms: _279  and  _281
REMARK  114  A    between atoms: _281  and  _282
REMARK  115  A    between atoms: _281  and  _284
REMARK  116  A    between atoms: _284  and  _285
REMARK  117  A    between atoms: _285  and  _286
REMARK  118  A    between atoms: _286  and  _287
REMARK  119  A    between atoms: _296  and  _298
REMARK  120  A    between atoms: _298  and  _299
REMARK  121  A    between atoms: _298  and  _301
REMARK  122  A    between atoms: _301  and  _302
REMARK  123  A    between atoms: _307  and  _309
REMARK  124  A    between atoms: _309  and  _310
REMARK  125  A    between atoms: _309  and  _312
REMARK  126  A    between atoms: _312  and  _313
REMARK  127  A    between atoms: _313  and  _314
REMARK  128  A    between atoms: _314  and  _315
REMARK  129  A    between atoms: _324  and  _326
REMARK  130  A    between atoms: _326  and  _327
REMARK  131  A    between atoms: _326  and  _329
REMARK  132  A    between atoms: _329  and  _330
REMARK  133  A    between atoms: _333  and  _335
REMARK  134  A    between atoms: _335  and  _336
REMARK  135  A    between atoms: _335  and  _338
REMARK  136  A    between atoms: _338  and  _339
REMARK  137  A    between atoms: _342  and  _344
REMARK  138  A    between atoms: _344  and  _345
REMARK  139  A    between atoms: _344  and  _347
REMARK  140  A    between atoms: _347  and  _348
REMARK  141  A    between atoms: _351  and  _353
REMARK  142  A    between atoms: _353  and  _354
REMARK  143  A    between atoms: _353  and  _356
REMARK  144  A    between atoms: _356  and  _357
REMARK  145  A    between atoms: _360  and  _362
REMARK  146  A    between atoms: _362  and  _363
REMARK  147  A    between atoms: _365  and  _367
REMARK  148  A    between atoms: _367  and  _368
REMARK  149  A    between atoms: _371  and  _373
REMARK  150  A    between atoms: _373  and  _374
REMARK  151  A    between atoms: _373  and  _376
REMARK  152  A    between atoms: _376  and  _377
REMARK  153  A    between atoms: _380  and  _382
REMARK  154  A    between atoms: _382  and  _383
REMARK  155  A    between atoms: _382  and  _385
REMARK  156  A    between atoms: _385  and  _386
REMARK  157  A    between atoms: _389  and  _391
REMARK  158  A    between atoms: _391  and  _392
REMARK  159  A    between atoms: _391  and  _394
REMARK  160  A    between atoms: _394  and  _395
REMARK  161  A    between atoms: _398  and  _400
REMARK  162  A    between atoms: _400  and  _401
REMARK  163  A    between atoms: _400  and  _403
REMARK  164  A    between atoms: _406  and  _408
REMARK  165  A    between atoms: _408  and  _409
REMARK  166  A    between atoms: _408  and  _411
REMARK  167  A    between atoms: _411  and  _412
REMARK  168  A    between atoms: _415  and  _417
REMARK  169  A    between atoms: _417  and  _418
REMARK  170  A    between atoms: _417  and  _420
REMARK  171  A    between atoms: _420  and  _421
REMARK  172  A    between atoms: _421  and  _422
REMARK  173  A    between atoms: _422  and  _423
REMARK  174  A    between atoms: _423  and  _424
REMARK  175  A    between atoms: _428  and  _430
REMARK  176  A    between atoms: _430  and  _431
REMARK  177  A    between atoms: _430  and  _433
REMARK  178  A    between atoms: _433  and  _434
REMARK  179  A    between atoms: _434  and  _435
REMARK  180  A    between atoms: _437  and  _439
REMARK  181  A    between atoms: _439  and  _440
REMARK  182  A    between atoms: _439  and  _442
REMARK  183  A    between atoms: _442  and  _443
REMARK  184  A    between atoms: _446  and  _448
REMARK  185  A    between atoms: _448  and  _449
REMARK  186  A    between atoms: _451  and  _453
REMARK  187  A    between atoms: _453  and  _454
REMARK  188  A    between atoms: _456  and  _458
REMARK  189  A    between atoms: _458  and  _459
REMARK  190  A    between atoms: _458  and  _461
REMARK  191  A    between atoms: _461  and  _462
REMARK  192  A    between atoms: _465  and  _467
REMARK  193  A    between atoms: _467  and  _468
REMARK  194  A    between atoms: _470  and  _472
REMARK  195  A    between atoms: _472  and  _473
REMARK  196  A    between atoms: _475  and  _477
REMARK  197  A    between atoms: _477  and  _478
REMARK  198  A    between atoms: _477  and  _480
REMARK  199  A    between atoms: _480  and  _481
REMARK  200  A    between atoms: _487  and  _489
REMARK  201  A    between atoms: _489  and  _490
REMARK  202  A    between atoms: _489  and  _492
REMARK  203  A    between atoms: _492  and  _493
REMARK  204  A    between atoms: _496  and  _498
REMARK  205  A    between atoms: _498  and  _499
REMARK  206  A    between atoms: _498  and  _501
REMARK  207  A    between atoms: _504  and  _506
REMARK  208  A    between atoms: _506  and  _507
REMARK  209  A    between atoms: _506  and  _509
REMARK  210  A    between atoms: _509  and  _510
REMARK  211  A    between atoms: _513  and  _515
REMARK  212  A    between atoms: _515  and  _516
REMARK  213  A    between atoms: _515  and  _518
REMARK  214  A    between atoms: _518  and  _519
REMARK  215  A    between atoms: _523  and  _524
REMARK  216  A    between atoms: _529  and  _531
REMARK  217  A    between atoms: _531  and  _532
REMARK  218  A    between atoms: _531  and  _534
REMARK  219  A    between atoms: _537  and  _539
REMARK  220  A    between atoms: _539  and  _540
REMARK  221  A    between atoms: _539  and  _542
REMARK  222  A    between atoms: _542  and  _543
REMARK  223  A    between atoms: _548  and  _550
REMARK  224  A    between atoms: _550  and  _551
REMARK  225  A    between atoms: _550  and  _553
REMARK  226  A    between atoms: _553  and  _554
REMARK  227  A    between atoms: _557  and  _559
REMARK  228  A    between atoms: _559  and  _560
REMARK  229  A    between atoms: _559  and  _562
REMARK  230  A    between atoms: _562  and  _563
REMARK  231  A    between atoms: _566  and  _568
REMARK  232  A    between atoms: _568  and  _569
REMARK  233  A    between atoms: _571  and  _573
REMARK  234  A    between atoms: _573  and  _574
REMARK  235  A    between atoms: _573  and  _576
REMARK  236  A    between atoms: _576  and  _577
REMARK  237  A    between atoms: _577  and  _578
REMARK  238  A    between atoms: _578  and  _579
REMARK  239  A    between atoms: _588  and  _590
REMARK  240  A    between atoms: _590  and  _591
REMARK  241  A    between atoms: _590  and  _593
REMARK  242  A    between atoms: _593  and  _594
REMARK                            x       y       z     vdW  Elec       q    Type
REMARK                         _______ _______ _______ _____ _____    ______ ____
ROOT
ATOM      1  C   ALA A   6       9.392  21.623  20.854  0.00  0.00    +0.241 C 
ATOM      2  O   ALA A   6       8.846  22.304  21.744  0.00  0.00    -0.273 OA
ATOM      3  N   ASP A   7       8.863  20.491  20.384  0.00  0.00    -0.297 N 
ATOM      4  H   ASP A   7       9.336  19.957  19.627  0.00  0.00    +0.150 HD
ENDROOT
BRANCH   1   5
ATOM      5  CA  ALA A   6      10.761  22.049  20.311  0.00  0.00    +0.149 C 
ATOM      6  CB  ALA A   6      11.801  21.894  21.400  0.00  0.00    +0.031 C 
BRANCH   5   8
ATOM      7  C   GLY A   5      10.899  23.785  18.590  0.00  0.00    +0.243 C 
ATOM      8  N   ALA A   6      10.704  23.422  19.850  0.00  0.00    -0.297 N 
ATOM      9  H   ALA A   6      10.498  24.165  20.548  0.00  0.00    +0.150 HD
ATOM     10  O   GLY A   5      11.162  22.969  17.691  0.00  0.00    -0.273 OA
BRANCH   7  11
ATOM     11  CA  GLY A   5      10.753  25.254  18.258  0.00  0.00    +0.176 C 
BRANCH  11  14
ATOM     12  C   THR A   4       9.399  26.401  19.953  0.00  0.00    +0.243 C 
ATOM     13  O   THR A   4       8.349  25.978  19.503  0.00  0.00    -0.273 OA
ATOM     14  N   GLY A   5      10.593  26.134  19.392  0.00  0.00    -0.295 N 
ATOM     15  H   GLY A   5      11.441  26.583  19.794  0.00  0.00    +0.150 HD
BRANCH  12  16
ATOM     16  CA  THR A   4       9.374  27.300  21.183  0.00  0.00    +0.176 C 
BRANCH  16  19
ATOM     17  C   ASP A   3      11.250  26.383  22.414  0.00  0.00    +0.241 C 
ATOM     18  O   ASP A   3      10.730  25.262  22.421  0.00  0.00    -0.273 OA
ATOM     19  N   THR A   4      10.675  27.421  21.808  0.00  0.00    -0.295 N 
ATOM     20  H   THR A   4      11.170  28.335  21.783  0.00  0.00    +0.150 HD
BRANCH  17  21
ATOM     21  CA  ASP A   3      12.608  26.621  23.065  0.00  0.00    +0.160 C 
BRANCH  21  23
ATOM     22  C   LEU A   2      13.088  28.020  25.016  0.00  0.00    +0.241 C 
ATOM     23  N   ASP A   3      12.487  26.946  24.495  0.00  0.00    -0.297 N 
ATOM     24  H   ASP A   3      11.923  26.328  25.112  0.00  0.00    +0.150 HD
ATOM     25  O   LEU A   2      13.547  28.935  24.348  0.00  0.00    -0.273 OA
BRANCH  22  26
ATOM     26  CA  LEU A   2      13.168  28.068  26.526  0.00  0.00    +0.149 C 
BRANCH  26  28
ATOM     27  C   LEU A   1      15.322  26.998  26.833  0.00  0.00    +0.238 C 
ATOM     28  N   LEU A   2      14.586  28.105  26.921  0.00  0.00    -0.297 N 
ATOM     29  H   LEU A   2      15.010  28.989  27.266  0.00  0.00    +0.150 HD
ATOM     30  O   LEU A   1      14.882  25.900  26.524  0.00  0.00    -0.274 OA
BRANCH  27  31
ATOM     31  CA  LEU A   1      16.810  27.154  27.093  0.00  0.00    +0.145 C 
BRANCH  31  32
ATOM     32  N   LEU A   1      17.267  26.226  28.142  0.00  0.00    -0.238 NA
ATOM     33  H   LEU A   1      17.474  25.246  27.861  0.00  0.00    +0.142 HD
ENDBRANCH  31  32
BRANCH  31  34
ATOM     34  CB  LEU A   1      17.635  26.814  25.834  0.00  0.00    +0.026 C 
BRANCH  34  35
ATOM     35  CG  LEU A   1      17.435  27.630  24.587  0.00  0.00    +0.002 C 
ATOM     36  CD2 LEU A   1      17.893  29.060  24.830  0.00  0.00    +0.000 C 
ATOM     37  CD1 LEU A   1      18.167  26.992  23.409  0.00  0.00    +0.000 C 
ENDBRANCH  34  35
ENDBRANCH  31  34
ENDBRANCH  27  31
ENDBRANCH  26  28
BRANCH  26  38
ATOM     38  CB  LEU A   2      12.461  29.301  27.085  0.00  0.00    +0.029 C 
BRANCH  38  39
ATOM     39  CG  LEU A   2      12.553  29.498  28.609  0.00  0.00    +0.002 C 
ATOM     40  CD2 LEU A   2      12.055  28.284  29.358  0.00  0.00    +0.000 C 
ATOM     41  CD1 LEU A   2      11.829  30.803  28.927  0.00  0.00    +0.000 C 
ENDBRANCH  38  39
ENDBRANCH  26  38
ENDBRANCH  22  26
ENDBRANCH  21  23
BRANCH  21  42
ATOM     42  CB  ASP A   3      13.482  25.369  22.914  0.00  0.00    +0.143 C 
BRANCH  42  43
ATOM     43  CG  ASP A   3      13.973  24.979  21.564  0.00  0.00    +0.367 C 
ATOM     44  OD2 ASP A   3      14.791  24.092  21.357  0.00  0.00    -0.246 OA
ATOM     45  OD1 ASP A   3      13.441  25.639  20.598  0.00  0.00    -0.246 OA
ENDBRANCH  42  43
ENDBRANCH  21  42
ENDBRANCH  17  21
ENDBRANCH  16  19
BRANCH  16  46
ATOM     46  CB  THR A   4       8.798  28.646  20.844  0.00  0.00    +0.137 C 
ATOM     47  CG2 THR A   4       8.583  29.516  22.076  0.00  0.00    +0.034 C 
BRANCH  46  48
ATOM     48  OG1 THR A   4       9.694  29.359  19.953  0.00  0.00    -0.382 OA
ATOM     49  HG1 THR A   4       9.815  28.837  19.121  0.00  0.00    +0.210 HD
ENDBRANCH  46  48
ENDBRANCH  16  46
ENDBRANCH  12  16
ENDBRANCH  11  14
ENDBRANCH   7  11
ENDBRANCH   5   8
ENDBRANCH   1   5
BRANCH   3  50
ATOM     50  CA  ASP A   7       7.619  20.024  20.950  0.00  0.00    +0.160 C 
BRANCH  50  51
ATOM     51  C   ASP A   7       7.790  19.536  22.380  0.00  0.00    +0.241 C 
ATOM     52  O   ASP A   7       6.866  19.616  23.190  0.00  0.00    -0.273 OA
ATOM     53  N   ASP A   8       8.958  18.997  22.694  0.00  0.00    -0.297 N 
ATOM     54  H   ASP A   8       9.727  19.142  22.009  0.00  0.00    +0.150 HD
BRANCH  53  55
ATOM     55  CA  ASP A   8       9.290  18.237  23.865  0.00  0.00    +0.160 C 
BRANCH  55  56
ATOM     56  C   ASP A   8      10.505  18.839  24.560  0.00  0.00    +0.241 C 
ATOM     57  N   THR A   9      10.722  18.411  25.798  0.00  0.00    -0.295 N 
ATOM     58  H   THR A   9      10.074  17.680  26.154  0.00  0.00    +0.150 HD
ATOM     59  O   ASP A   8      11.255  19.615  24.008  0.00  0.00    -0.273 OA
BRANCH  57  60
ATOM     60  CA  THR A   9      11.772  18.854  26.718  0.00  0.00    +0.176 C 
BRANCH  60  61
ATOM     61  C   THR A   9      12.854  17.799  26.755  0.00  0.00    +0.243 C 
ATOM     62  O   THR A   9      12.540  16.623  26.958  0.00  0.00    -0.273 OA
ATOM     63  N   VAL A  10      14.110  18.206  26.571  0.00  0.00    -0.297 N 
ATOM     64  H   VAL A  10      14.280  19.222  26.427  0.00  0.00    +0.150 HD
BRANCH  63  65
ATOM     65  CA  VAL A  10      15.248  17.318  26.560  0.00  0.00    +0.149 C 
BRANCH  65  66
ATOM     66  C   VAL A  10      16.297  17.842  27.502  0.00  0.00    +0.241 C 
ATOM     67  N   ILE A  11      16.764  17.006  28.428  0.00  0.00    -0.298 N 
ATOM     68  H   ILE A  11      16.357  16.050  28.458  0.00  0.00    +0.150 HD
ATOM     69  O   VAL A  10      16.725  18.980  27.386  0.00  0.00    -0.273 OA
BRANCH  67  70
ATOM     70  CA  ILE A  11      17.799  17.324  29.401  0.00  0.00    +0.137 C 
BRANCH  70  71
ATOM     71  CB  ILE A  11      17.216  17.241  30.828  0.00  0.00    +0.026 C 
ATOM     72  CG2 ILE A  11      18.147  17.579  31.966  0.00  0.00    +0.002 C 
BRANCH  71  73
ATOM     73  CG1 ILE A  11      15.927  18.069  30.931  0.00  0.00    +0.002 C 
ATOM     74  CD1 ILE A  11      16.069  19.538  30.756  0.00  0.00    +0.000 C 
ENDBRANCH  71  73
ENDBRANCH  70  71
BRANCH  70  75
ATOM     75  C   ILE A  11      18.983  16.361  29.216  0.00  0.00    +0.227 C 
ATOM     76  O   ILE A  11      18.803  15.218  28.822  0.00  0.00    -0.286 OA
ENDBRANCH  70  75
ENDBRANCH  67  70
ENDBRANCH  65  66
BRANCH  65  77
ATOM     77  CB  VAL A  10      15.944  17.101  25.212  0.00  0.00    +0.027 C 
ATOM     78  CG2 VAL A  10      16.922  15.917  25.286  0.00  0.00    +0.002 C 
ATOM     79  CG1 VAL A  10      14.933  16.820  24.143  0.00  0.00    +0.002 C 
ENDBRANCH  65  77
ENDBRANCH  63  65
ENDBRANCH  60  61
BRANCH  60  80
ATOM     80  CB  THR A   9      11.157  19.110  28.090  0.00  0.00    +0.137 C 
ATOM     81  CG2 THR A   9      12.187  19.377  29.176  0.00  0.00    +0.034 C 
BRANCH  80  82
ATOM     82  OG1 THR A   9      10.269  20.246  27.993  0.00  0.00    -0.382 OA
ATOM     83  HG1 THR A   9       9.556  20.051  27.335  0.00  0.00    +0.210 HD
ENDBRANCH  80  82
ENDBRANCH  60  80
ENDBRANCH  57  60
ENDBRANCH  55  56
BRANCH  55  84
ATOM     84  CB  ASP A   8       9.650  16.796  23.438  0.00  0.00    +0.143 C 
BRANCH  84  85
ATOM     85  CG  ASP A   8       8.714  16.107  22.488  0.00  0.00    +0.367 C 
ATOM     86  OD2 ASP A   8       7.533  16.065  22.850  0.00  0.00    -0.246 OA
ATOM     87  OD1 ASP A   8       9.099  15.648  21.375  0.00  0.00    -0.246 OA
ENDBRANCH  84  85
ENDBRANCH  55  84
ENDBRANCH  53  55
ENDBRANCH  50  51
BRANCH  50  88
ATOM     88  CB  ASP A   7       7.055  18.822  20.161  0.00  0.00    +0.143 C 
BRANCH  88  89
ATOM     89  CG  ASP A   7       6.531  19.085  18.761  0.00  0.00    +0.367 C 
ATOM     90  OD2 ASP A   7       6.464  20.247  18.300  0.00  0.00    -0.246 OA
ATOM     91  OD1 ASP A   7       6.152  18.047  18.099  0.00  0.00    -0.246 OA
ENDBRANCH  88  89
ENDBRANCH  50  88
ENDBRANCH   3  50
TORSDOF 39
REMARK  Name = ../refined-set-2016/4zip/4zip_pocket.pdb
REMARK  242 active torsions:
REMARK  status: ('A' for Active; 'I' for Inactive)
REMARK    1  A    between atoms: _1  and  _3
REMARK    2  A    between atoms: _3  and  _4
REMARK    3  A    between atoms: _3  and  _6
REMARK    4  A    between atoms: _6  and  _7
REMARK    5  A    between atoms: _7  and  _8
REMARK    6  A    between atoms: _8  and  _9
REMARK    7  A    between atoms: _19  and  _20
REMARK    8  A    between atoms: _25  and  _27
REMARK    9  A    between atoms: _27  and  _28
REMARK   10  A    between atoms: _27  and  _30
REMARK   11  A    between atoms: _30  and  _31
REMARK   12  A    between atoms: _34  and  _36
REMARK   13  A    between atoms: _36  and  _37
REMARK   14  A    between atoms: _36  and  _39
REMARK   15  A    between atoms: _39  and  _40
REMARK   16  A    between atoms: _43  and  _45
REMARK   17  A    between atoms: _45  and  _46
REMARK   18  A    between atoms: _45  and  _48
REMARK   19  A    between atoms: _48  and  _49
REMARK   20  A    between atoms: _52  and  _54
REMARK   21  A    between atoms: _54  and  _55
REMARK   22  A    between atoms: _54  and  _57
REMARK   23  A    between atoms: _57  and  _58
REMARK   24  A    between atoms: _61  and  _63
REMARK   25  A    between atoms: _63  and  _64
REMARK   26  A    between atoms: _63  and  _66
REMARK   27  A    between atoms: _66  and  _67
REMARK   28  A    between atoms: _70  and  _72
REMARK   29  A    between atoms: _72  and  _73
REMARK   30  A    between atoms: _75  and  _77
REMARK   31  A    between atoms: _77  and  _78
REMARK   32  A    between atoms: _81  and  _83
REMARK   33  A    between atoms: _83  and  _84
REMARK   34  A    between atoms: _83  and  _86
REMARK   35  A    between atoms: _86  and  _87
REMARK   36  A    between atoms: _90  and  _92
REMARK   37  A    between atoms: _92  and  _93
REMARK   38  A    between atoms: _92  and  _95
REMARK   39  A    between atoms: _95  and  _96
REMARK   40  A    between atoms: _99  and  _101
REMARK   41  A    between atoms: _101  and  _102
REMARK   42  A    between atoms: _101  and  _104
REMARK   43  A    between atoms: _104  and  _105
REMARK   44  A    between atoms: _108  and  _110
REMARK   45  A    between atoms: _110  and  _111
REMARK   46  A    between atoms: _110  and  _113
REMARK   47  A    between atoms: _116  and  _118
REMARK   48  A    between atoms: _118  and  _119
REMARK   49  A    between atoms: _118  and  _121
REMARK   50  A    between atoms: _121  and  _122
REMARK   51  A    between atoms: _122  and  _123
REMARK   52  A    between atoms: _123  and  _124
REMARK   53  A    between atoms: _124  and  _125
REMARK   54  A    between atoms: _129  and  _131
REMARK   55  A    between atoms: _131  and  _132
REMARK   56  A    between atoms: _131  and  _134
REMARK   57  A    between atoms: _134  and  _135
REMARK   58  A    between atoms: _135  and  _136
REMARK   59  A    between atoms: _138  and  _140
REMARK   60  A    between atoms: _140  and  _141
REMARK   61  A    between atoms: _140  and  _143
REMARK   62  A    between atoms: _143  and  _144
REMARK   63  A    between atoms: _147  and  _149
REMARK   64  A    between atoms: _149  and  _150
REMARK   65  A    between atoms: _152  and  _154
REMARK   66  A    between atoms: _154  and  _155
REMARK   67  A    between atoms: _157  and  _159
REMARK   68  A    between atoms: _159  and  _160
REMARK   69  A    between atoms: _159  and  _162
REMARK   70  A    between atoms: _162  and  _163
REMARK   71  A    between atoms: _166  and  _168
REMARK   72  A    between atoms: _168  and  _169
REMARK   73  A    between atoms: _171  and  _173
REMARK   74  A    between atoms: _173  and  _174
REMARK   75  A    between atoms: _176  and  _178
REMARK   76  A    between atoms: _178  and  _179
REMARK   77  A    between atoms: _178  and  _181
REMARK   78  A    between atoms: _181  and  _182
REMARK   79  A    between atoms: _188  and  _190
REMARK   80  A    between atoms: _190  and  _191
REMARK   81  A    between atoms: _190  and  _193
REMARK   82  A    between atoms: _193  and  _194
REMARK   83  A    between atoms: _197  and  _199
REMARK   84  A    between atoms: _199  and  _200
REMARK   85  A    between atoms: _199  and  _202
REMARK   86  A    between atoms: _205  and  _207
REMARK   87  A    between atoms: _207  and  _208
REMARK   88  A    between atoms: _207  and  _210
REMARK   89  A    between atoms: _210  and  _211
REMARK   90  A    between atoms: _215  and  _216
REMARK   91  A    between atoms: _221  and  _223
REMARK   92  A    between atoms: _223  and  _224
REMARK   93  A    between atoms: _223  and  _226
REMARK   94  A    between atoms: _226  and  _227
REMARK   95  A    between atoms: _231  and  _232
REMARK   96  A    between atoms: _237  and  _239
REMARK   97  A    between atoms: _239  and  _240
REMARK   98  A    between atoms: _239  and  _242
REMARK   99  A    between atoms: _245  and  _247
REMARK  100  A    between atoms: _247  and  _248
REMARK  101  A    between atoms: _247  and  _250
REMARK  102  A    between atoms: _250  and  _251
REMARK  103  A    between atoms: _256  and  _258
REMARK  104  A    between atoms: _258  and  _259
REMARK  105  A    between atoms: _258  and  _261
REMARK  106  A    between atoms: _261  and  _262
REMARK  107  A    between atoms: _265  and  _267
REMARK  108  A    between atoms: _267  and  _268
REMARK  109  A    between atoms: _267  and  _270
REMARK  110  A    between atoms: _270  and  _271
REMARK  111  A    between atoms: _274  and  _276
REMARK  112  A    between atoms: _276  and  _277
REMARK  113  A    between atoms: _279  and  _281
REMARK  114  A    between atoms: _281  and  _282
REMARK  115  A    between atoms: _281  and  _284
REMARK  116  A    between atoms: _284  and  _285
REMARK  117  A    between atoms: _285  and  _286
REMARK  118  A    between atoms: _286  and  _287
REMARK  119  A    between atoms: _296  and  _298
REMARK  120  A    between atoms: _298  and  _299
REMARK  121  A    between atoms: _298  and  _301
REMARK  122  A    between atoms: _301  and  _302
REMARK  123  A    between atoms: _307  and  _309
REMARK  124  A    between atoms: _309  and  _310
REMARK  125  A    between atoms: _309  and  _312
REMARK  126  A    between atoms: _312  and  _313
REMARK  127  A    between atoms: _313  and  _314
REMARK  128  A    between atoms: _314  and  _315
REMARK  129  A    between atoms: _324  and  _326
REMARK  130  A    between atoms: _326  and  _327
REMARK  131  A    between atoms: _326  and  _329
REMARK  132  A    between atoms: _329  and  _330
REMARK  133  A    between atoms: _333  and  _335
REMARK  134  A    between atoms: _335  and  _336
REMARK  135  A    between atoms: _335  and  _338
REMARK  136  A    between atoms: _338  and  _339
REMARK  137  A    between atoms: _342  and  _344
REMARK  138  A    between atoms: _344  and  _345
REMARK  139  A    between atoms: _344  and  _347
REMARK  140  A    between atoms: _347  and  _348
REMARK  141  A    between atoms: _351  and  _353
REMARK  142  A    between atoms: _353  and  _354
REMARK  143  A    between atoms: _353  and  _356
REMARK  144  A    between atoms: _356  and  _357
REMARK  145  A    between atoms: _360  and  _362
REMARK  146  A    between atoms: _362  and  _363
REMARK  147  A    between atoms: _365  and  _367
REMARK  148  A    between atoms: _367  and  _368
REMARK  149  A    between atoms: _371  and  _373
REMARK  150  A    between atoms: _373  and  _374
REMARK  151  A    between atoms: _373  and  _376
REMARK  152  A    between atoms: _376  and  _377
REMARK  153  A    between atoms: _380  and  _382
REMARK  154  A    between atoms: _382  and  _383
REMARK  155  A    between atoms: _382  and  _385
REMARK  156  A    between atoms: _385  and  _386
REMARK  157  A    between atoms: _389  and  _391
REMARK  158  A    between atoms: _391  and  _392
REMARK  159  A    between atoms: _391  and  _394
REMARK  160  A    between atoms: _394  and  _395
REMARK  161  A    between atoms: _398  and  _400
REMARK  162  A    between atoms: _400  and  _401
REMARK  163  A    between atoms: _400  and  _403
REMARK  164  A    between atoms: _406  and  _408
REMARK  165  A    between atoms: _408  and  _409
REMARK  166  A    between atoms: _408  and  _411
REMARK  167  A    between atoms: _411  and  _412
REMARK  168  A    between atoms: _415  and  _417
REMARK  169  A    between atoms: _417  and  _418
REMARK  170  A    between atoms: _417  and  _420
REMARK  171  A    between atoms: _420  and  _421
REMARK  172  A    between atoms: _421  and  _422
REMARK  173  A    between atoms: _422  and  _423
REMARK  174  A    between atoms: _423  and  _424
REMARK  175  A    between atoms: _428  and  _430
REMARK  176  A    between atoms: _430  and  _431
REMARK  177  A    between atoms: _430  and  _433
REMARK  178  A    between atoms: _433  and  _434
REMARK  179  A    between atoms: _434  and  _435
REMARK  180  A    between atoms: _437  and  _439
REMARK  181  A    between atoms: _439  and  _440
REMARK  182  A    between atoms: _439  and  _442
REMARK  183  A    between atoms: _442  and  _443
REMARK  184  A    between atoms: _446  and  _448
REMARK  185  A    between atoms: _448  and  _449
REMARK  186  A    between atoms: _451  and  _453
REMARK  187  A    between atoms: _453  and  _454
REMARK  188  A    between atoms: _456  and  _458
REMARK  189  A    between atoms: _458  and  _459
REMARK  190  A    between atoms: _458  and  _461
REMARK  191  A    between atoms: _461  and  _462
REMARK  192  A    between atoms: _465  and  _467
REMARK  193  A    between atoms: _467  and  _468
REMARK  194  A    between atoms: _470  and  _472
REMARK  195  A    between atoms: _472  and  _473
REMARK  196  A    between atoms: _475  and  _477
REMARK  197  A    between atoms: _477  and  _478
REMARK  198  A    between atoms: _477  and  _480
REMARK  199  A    between atoms: _480  and  _481
REMARK  200  A    between atoms: _487  and  _489
REMARK  201  A    between atoms: _489  and  _490
REMARK  202  A    between atoms: _489  and  _492
REMARK  203  A    between atoms: _492  and  _493
REMARK  204  A    between atoms: _496  and  _498
REMARK  205  A    between atoms: _498  and  _499
REMARK  206  A    between atoms: _498  and  _501
REMARK  207  A    between atoms: _504  and  _506
REMARK  208  A    between atoms: _506  and  _507
REMARK  209  A    between atoms: _506  and  _509
REMARK  210  A    between atoms: _509  and  _510
REMARK  211  A    between atoms: _513  and  _515
REMARK  212  A    between atoms: _515  and  _516
REMARK  213  A    between atoms: _515  and  _518
REMARK  214  A    between atoms: _518  and  _519
REMARK  215  A    between atoms: _523  and  _524
REMARK  216  A    between atoms: _529  and  _531
REMARK  217  A    between atoms: _531  and  _532
REMARK  218  A    between atoms: _531  and  _534
REMARK  219  A    between atoms: _537  and  _539
REMARK  220  A    between atoms: _539  and  _540
REMARK  221  A    between atoms: _539  and  _542
REMARK  222  A    between atoms: _542  and  _543
REMARK  223  A    between atoms: _548  and  _550
REMARK  224  A    between atoms: _550  and  _551
REMARK  225  A    between atoms: _550  and  _553
REMARK  226  A    between atoms: _553  and  _554
REMARK  227  A    between atoms: _557  and  _559
REMARK  228  A    between atoms: _559  and  _560
REMARK  229  A    between atoms: _559  and  _562
REMARK  230  A    between atoms: _562  and  _563
REMARK  231  A    between atoms: _566  and  _568
REMARK  232  A    between atoms: _568  and  _569
REMARK  233  A    between atoms: _571  and  _573
REMARK  234  A    between atoms: _573  and  _574
REMARK  235  A    between atoms: _573  and  _576
REMARK  236  A    between atoms: _576  and  _577
REMARK  237  A    between atoms: _577  and  _578
REMARK  238  A    between atoms: _578  and  _579
REMARK  239  A    between atoms: _588  and  _590
REMARK  240  A    between atoms: _590  and  _591
REMARK  241  A    between atoms: _590  and  _593
REMARK  242  A    between atoms: _593  and  _594
REMARK                            x       y       z     vdW  Elec       q    Type
REMARK                         _______ _______ _______ _____ _____    ______ ____
ROOT
ATOM      1  C   GLY A   5      17.352  18.027  13.868  0.00  0.00    +0.243 C 
ATOM      2  N   ILE A   6      18.015  19.161  13.908  0.00  0.00    -0.297 N 
ATOM      3  H   ILE A   6      18.131  19.656  14.816  0.00  0.00    +0.150 HD
ATOM      4  O   GLY A   5      17.282  17.395  12.782  0.00  0.00    -0.273 OA
ENDROOT
BRANCH   2   5
ATOM      5  CA  ILE A   6      18.588  19.733  12.703  0.00  0.00    +0.149 C 
BRANCH   5   6
ATOM      6  C   ILE A   6      19.612  18.824  12.072  0.00  0.00    +0.241 C 
ATOM      7  N   GLY A   7      20.367  18.097  12.845  0.00  0.00    -0.295 N 
ATOM      8  H   GLY A   7      20.216  18.106  13.874  0.00  0.00    +0.150 HD
ATOM      9  O   ILE A   6      19.736  18.858  10.829  0.00  0.00    -0.273 OA
BRANCH   7  10
ATOM     10  CA  GLY A   7      21.435  17.261  12.266  0.00  0.00    +0.176 C 
BRANCH  10  11
ATOM     11  C   GLY A   7      21.130  15.827  12.028  0.00  0.00    +0.243 C 
ATOM     12  N   GLY A   8      19.984  15.343  12.426  0.00  0.00    -0.295 N 
ATOM     13  H   GLY A   8      19.267  15.997  12.798  0.00  0.00    +0.150 HD
ATOM     14  O   GLY A   7      21.981  15.110  11.467  0.00  0.00    -0.273 OA
BRANCH  12  15
ATOM     15  CA  GLY A   8      19.673  13.922  12.368  0.00  0.00    +0.176 C 
BRANCH  15  16
ATOM     16  C   GLY A   8      18.865  13.511  13.587  0.00  0.00    +0.243 C 
ATOM     17  O   GLY A   8      18.452  14.320  14.397  0.00  0.00    -0.273 OA
ATOM     18  N   PHE A   9      18.669  12.209  13.705  0.00  0.00    -0.297 N 
ATOM     19  H   PHE A   9      19.106  11.587  12.995  0.00  0.00    +0.150 HD
BRANCH  18  20
ATOM     20  CA  PHE A   9      17.880  11.584  14.766  0.00  0.00    +0.153 C 
BRANCH  20  21
ATOM     21  C   PHE A   9      18.750  11.098  15.903  0.00  0.00    +0.241 C 
ATOM     22  N   ILE A  10      18.228  11.258  17.107  0.00  0.00    -0.298 N 
ATOM     23  H   ILE A  10      17.356  11.814  17.219  0.00  0.00    +0.150 HD
ATOM     24  O   PHE A   9      19.818  10.543  15.655  0.00  0.00    -0.273 OA
BRANCH  22  25
ATOM     25  CA  ILE A  10      18.851  10.673  18.262  0.00  0.00    +0.137 C 
BRANCH  25  26
ATOM     26  C   ILE A  10      17.834   9.855  19.031  0.00  0.00    +0.227 C 
ATOM     27  O   ILE A  10      16.632  10.099  18.957  0.00  0.00    -0.286 OA
ENDBRANCH  25  26
BRANCH  25  28
ATOM     28  CB  ILE A  10      19.485  11.722  19.205  0.00  0.00    +0.026 C 
ATOM     29  CG2 ILE A  10      20.587  12.460  18.433  0.00  0.00    +0.002 C 
BRANCH  28  30
ATOM     30  CG1 ILE A  10      18.474  12.643  19.860  0.00  0.00    +0.002 C 
ATOM     31  CD1 ILE A  10      18.930  13.529  21.055  0.00  0.00    +0.000 C 
ENDBRANCH  28  30
ENDBRANCH  25  28
ENDBRANCH  22  25
ENDBRANCH  20  21
BRANCH  20  32
ATOM     32  CB  PHE A   9      17.141  10.362  14.196  0.00  0.00    +0.055 C 
BRANCH  32  33
ATOM     33  CG  PHE A   9      15.904  10.838  13.448  0.00  0.00    -0.020 A 
ATOM     34  CD2 PHE A   9      14.701  10.871  14.146  0.00  0.00    -0.004 A 
ATOM     35  CE2 PHE A   9      13.567  11.321  13.474  0.00  0.00    -0.000 A 
ATOM     36  CZ  PHE A   9      13.636  11.737  12.159  0.00  0.00    -0.000 A 
ATOM     37  CE1 PHE A   9      14.844  11.724  11.475  0.00  0.00    -0.000 A 
ATOM     38  CD1 PHE A   9      15.988  11.258  12.122  0.00  0.00    -0.004 A 
ENDBRANCH  32  33
ENDBRANCH  20  32
ENDBRANCH  18  20
ENDBRANCH  15  16
ENDBRANCH  12  15
ENDBRANCH  10  11
ENDBRANCH   7  10
ENDBRANCH   5   6
BRANCH   5  39
ATOM     39  CB  ILE A   6      19.179  21.126  12.991  0.00  0.00    +0.027 C 
ATOM     40  CG2 ILE A   6      20.502  21.096  13.642  0.00  0.00    +0.002 C 
BRANCH  39  41
ATOM     41  CG1 ILE A   6      19.109  21.980  11.707  0.00  0.00    +0.002 C 
ATOM     42  CD1 ILE A   6      19.351  23.440  11.919  0.00  0.00    +0.000 C 
ENDBRANCH  39  41
ENDBRANCH   5  39
ENDBRANCH   2   5
BRANCH   1  43
ATOM     43  CA  GLY A   5      16.764  17.520  15.173  0.00  0.00    +0.176 C 
BRANCH  43  45
ATOM     44  C   GLY A   4      15.088  15.796  14.793  0.00  0.00    +0.243 C 
ATOM     45  N   GLY A   5      16.300  16.186  15.073  0.00  0.00    -0.295 N 
ATOM     46  H   GLY A   5      17.001  15.437  15.241  0.00  0.00    +0.150 HD
ATOM     47  O   GLY A   4      14.236  16.621  14.593  0.00  0.00    -0.273 OA
BRANCH  44  48
ATOM     48  CA  GLY A   4      14.843  14.295  14.695  0.00  0.00    +0.176 C 
BRANCH  48  51
ATOM     49  C   ILE A   3      14.743  13.251  16.914  0.00  0.00    +0.241 C 
ATOM     50  O   ILE A   3      15.944  12.984  16.876  0.00  0.00    -0.273 OA
ATOM     51  N   GLY A   4      14.177  13.839  15.910  0.00  0.00    -0.295 N 
ATOM     52  H   GLY A   4      13.152  14.002  15.975  0.00  0.00    +0.150 HD
BRANCH  49  53
ATOM     53  CA  ILE A   3      13.942  12.922  18.149  0.00  0.00    +0.149 C 
BRANCH  53  55
ATOM     54  C   MET A   2      13.111  10.638  18.457  0.00  0.00    +0.241 C 
ATOM     55  N   ILE A   3      14.117  11.499  18.437  0.00  0.00    -0.297 N 
ATOM     56  H   ILE A   3      15.075  11.147  18.635  0.00  0.00    +0.150 HD
ATOM     57  O   MET A   2      11.917  10.883  18.303  0.00  0.00    -0.273 OA
BRANCH  54  58
ATOM     58  CA  MET A   2      13.435   9.171  18.656  0.00  0.00    +0.149 C 
BRANCH  58  61
ATOM     59  C   LYS A   1      12.876   8.277  20.905  0.00  0.00    +0.238 C 
ATOM     60  O   LYS A   1      14.026   8.299  21.346  0.00  0.00    -0.274 OA
ATOM     61  N   MET A   2      12.562   8.597  19.666  0.00  0.00    -0.297 N 
ATOM     62  H   MET A   2      11.579   8.419  19.378  0.00  0.00    +0.150 HD
BRANCH  59  63
ATOM     63  CA  LYS A   1      11.701   7.839  21.785  0.00  0.00    +0.145 C 
BRANCH  63  64
ATOM     64  N   LYS A   1      12.165   6.807  22.676  0.00  0.00    -0.238 NA
ATOM     65  H   LYS A   1      13.175   6.784  22.924  0.00  0.00    +0.142 HD
ENDBRANCH  63  64
BRANCH  63  66
ATOM     66  CB  LYS A   1      11.112   9.053  22.489  0.00  0.00    +0.026 C 
BRANCH  66  67
ATOM     67  CG  LYS A   1      10.312  10.017  21.610  0.00  0.00    -0.000 C 
BRANCH  67  68
ATOM     68  CD  LYS A   1       9.732  11.152  22.403  0.00  0.00    -0.024 C 
BRANCH  68  69
ATOM     69  CE  LYS A   1       9.031  12.169  21.543  0.00  0.00    -0.086 C 
BRANCH  69  70
ATOM     70  NZ  LYS A   1       7.936  11.548  20.777  0.00  0.00    +0.380 N 
ATOM     71  HZ1 LYS A   1       7.245  11.134  21.435  0.00  0.00    -0.089 HD
ATOM     72  HZ2 LYS A   1       7.470  12.271  20.193  0.00  0.00    -0.089 HD
ATOM     73  HZ3 LYS A   1       8.323  10.802  20.164  0.00  0.00    -0.089 HD
ENDBRANCH  69  70
ENDBRANCH  68  69
ENDBRANCH  67  68
ENDBRANCH  66  67
ENDBRANCH  63  66
ENDBRANCH  59  63
ENDBRANCH  58  61
BRANCH  58  74
ATOM     74  CB  MET A   2      13.260   8.461  17.305  0.00  0.00    +0.041 C 
BRANCH  74  75
ATOM     75  CG  MET A   2      13.626   6.993  17.327  0.00  0.00    +0.060 C 
BRANCH  75  76
ATOM     76  SD  MET A   2      15.363   6.772  17.650  0.00  0.00    -0.139 S 
ATOM     77  CE  MET A   2      16.133   7.655  16.318  0.00  0.00    +0.069 C 
ENDBRANCH  75  76
ENDBRANCH  74  75
ENDBRANCH  58  74
ENDBRANCH  54  58
ENDBRANCH  53  55
BRANCH  53  78
ATOM     78  CB  ILE A   3      14.455  13.844  19.261  0.00  0.00    +0.027 C 
ATOM     79  CG2 ILE A   3      14.362  15.286  18.766  0.00  0.00    +0.002 C 
BRANCH  78  80
ATOM     80  CG1 ILE A   3      13.701  13.621  20.581  0.00  0.00    +0.002 C 
ATOM     81  CD1 ILE A   3      12.196  13.785  20.464  0.00  0.00    +0.000 C 
ENDBRANCH  78  80
ENDBRANCH  53  78
ENDBRANCH  49  53
ENDBRANCH  48  51
ENDBRANCH  44  48
ENDBRANCH  43  45
ENDBRANCH   1  43
TORSDOF 36
REMARK  Name = ../refined-set-2016/4zip/4zip_pocket.pdb
REMARK  242 active torsions:
REMARK  status: ('A' for Active; 'I' for Inactive)
REMARK    1  A    between atoms: _1  and  _3
REMARK    2  A    between atoms: _3  and  _4
REMARK    3  A    between atoms: _3  and  _6
REMARK    4  A    between atoms: _6  and  _7
REMARK    5  A    between atoms: _7  and  _8
REMARK    6  A    between atoms: _8  and  _9
REMARK    7  A    between atoms: _19  and  _20
REMARK    8  A    between atoms: _25  and  _27
REMARK    9  A    between atoms: _27  and  _28
REMARK   10  A    between atoms: _27  and  _30
REMARK   11  A    between atoms: _30  and  _31
REMARK   12  A    between atoms: _34  and  _36
REMARK   13  A    between atoms: _36  and  _37
REMARK   14  A    between atoms: _36  and  _39
REMARK   15  A    between atoms: _39  and  _40
REMARK   16  A    between atoms: _43  and  _45
REMARK   17  A    between atoms: _45  and  _46
REMARK   18  A    between atoms: _45  and  _48
REMARK   19  A    between atoms: _48  and  _49
REMARK   20  A    between atoms: _52  and  _54
REMARK   21  A    between atoms: _54  and  _55
REMARK   22  A    between atoms: _54  and  _57
REMARK   23  A    between atoms: _57  and  _58
REMARK   24  A    between atoms: _61  and  _63
REMARK   25  A    between atoms: _63  and  _64
REMARK   26  A    between atoms: _63  and  _66
REMARK   27  A    between atoms: _66  and  _67
REMARK   28  A    between atoms: _70  and  _72
REMARK   29  A    between atoms: _72  and  _73
REMARK   30  A    between atoms: _75  and  _77
REMARK   31  A    between atoms: _77  and  _78
REMARK   32  A    between atoms: _81  and  _83
REMARK   33  A    between atoms: _83  and  _84
REMARK   34  A    between atoms: _83  and  _86
REMARK   35  A    between atoms: _86  and  _87
REMARK   36  A    between atoms: _90  and  _92
REMARK   37  A    between atoms: _92  and  _93
REMARK   38  A    between atoms: _92  and  _95
REMARK   39  A    between atoms: _95  and  _96
REMARK   40  A    between atoms: _99  and  _101
REMARK   41  A    between atoms: _101  and  _102
REMARK   42  A    between atoms: _101  and  _104
REMARK   43  A    between atoms: _104  and  _105
REMARK   44  A    between atoms: _108  and  _110
REMARK   45  A    between atoms: _110  and  _111
REMARK   46  A    between atoms: _110  and  _113
REMARK   47  A    between atoms: _116  and  _118
REMARK   48  A    between atoms: _118  and  _119
REMARK   49  A    between atoms: _118  and  _121
REMARK   50  A    between atoms: _121  and  _122
REMARK   51  A    between atoms: _122  and  _123
REMARK   52  A    between atoms: _123  and  _124
REMARK   53  A    between atoms: _124  and  _125
REMARK   54  A    between atoms: _129  and  _131
REMARK   55  A    between atoms: _131  and  _132
REMARK   56  A    between atoms: _131  and  _134
REMARK   57  A    between atoms: _134  and  _135
REMARK   58  A    between atoms: _135  and  _136
REMARK   59  A    between atoms: _138  and  _140
REMARK   60  A    between atoms: _140  and  _141
REMARK   61  A    between atoms: _140  and  _143
REMARK   62  A    between atoms: _143  and  _144
REMARK   63  A    between atoms: _147  and  _149
REMARK   64  A    between atoms: _149  and  _150
REMARK   65  A    between atoms: _152  and  _154
REMARK   66  A    between atoms: _154  and  _155
REMARK   67  A    between atoms: _157  and  _159
REMARK   68  A    between atoms: _159  and  _160
REMARK   69  A    between atoms: _159  and  _162
REMARK   70  A    between atoms: _162  and  _163
REMARK   71  A    between atoms: _166  and  _168
REMARK   72  A    between atoms: _168  and  _169
REMARK   73  A    between atoms: _171  and  _173
REMARK   74  A    between atoms: _173  and  _174
REMARK   75  A    between atoms: _176  and  _178
REMARK   76  A    between atoms: _178  and  _179
REMARK   77  A    between atoms: _178  and  _181
REMARK   78  A    between atoms: _181  and  _182
REMARK   79  A    between atoms: _188  and  _190
REMARK   80  A    between atoms: _190  and  _191
REMARK   81  A    between atoms: _190  and  _193
REMARK   82  A    between atoms: _193  and  _194
REMARK   83  A    between atoms: _197  and  _199
REMARK   84  A    between atoms: _199  and  _200
REMARK   85  A    between atoms: _199  and  _202
REMARK   86  A    between atoms: _205  and  _207
REMARK   87  A    between atoms: _207  and  _208
REMARK   88  A    between atoms: _207  and  _210
REMARK   89  A    between atoms: _210  and  _211
REMARK   90  A    between atoms: _215  and  _216
REMARK   91  A    between atoms: _221  and  _223
REMARK   92  A    between atoms: _223  and  _224
REMARK   93  A    between atoms: _223  and  _226
REMARK   94  A    between atoms: _226  and  _227
REMARK   95  A    between atoms: _231  and  _232
REMARK   96  A    between atoms: _237  and  _239
REMARK   97  A    between atoms: _239  and  _240
REMARK   98  A    between atoms: _239  and  _242
REMARK   99  A    between atoms: _245  and  _247
REMARK  100  A    between atoms: _247  and  _248
REMARK  101  A    between atoms: _247  and  _250
REMARK  102  A    between atoms: _250  and  _251
REMARK  103  A    between atoms: _256  and  _258
REMARK  104  A    between atoms: _258  and  _259
REMARK  105  A    between atoms: _258  and  _261
REMARK  106  A    between atoms: _261  and  _262
REMARK  107  A    between atoms: _265  and  _267
REMARK  108  A    between atoms: _267  and  _268
REMARK  109  A    between atoms: _267  and  _270
REMARK  110  A    between atoms: _270  and  _271
REMARK  111  A    between atoms: _274  and  _276
REMARK  112  A    between atoms: _276  and  _277
REMARK  113  A    between atoms: _279  and  _281
REMARK  114  A    between atoms: _281  and  _282
REMARK  115  A    between atoms: _281  and  _284
REMARK  116  A    between atoms: _284  and  _285
REMARK  117  A    between atoms: _285  and  _286
REMARK  118  A    between atoms: _286  and  _287
REMARK  119  A    between atoms: _296  and  _298
REMARK  120  A    between atoms: _298  and  _299
REMARK  121  A    between atoms: _298  and  _301
REMARK  122  A    between atoms: _301  and  _302
REMARK  123  A    between atoms: _307  and  _309
REMARK  124  A    between atoms: _309  and  _310
REMARK  125  A    between atoms: _309  and  _312
REMARK  126  A    between atoms: _312  and  _313
REMARK  127  A    between atoms: _313  and  _314
REMARK  128  A    between atoms: _314  and  _315
REMARK  129  A    between atoms: _324  and  _326
REMARK  130  A    between atoms: _326  and  _327
REMARK  131  A    between atoms: _326  and  _329
REMARK  132  A    between atoms: _329  and  _330
REMARK  133  A    between atoms: _333  and  _335
REMARK  134  A    between atoms: _335  and  _336
REMARK  135  A    between atoms: _335  and  _338
REMARK  136  A    between atoms: _338  and  _339
REMARK  137  A    between atoms: _342  and  _344
REMARK  138  A    between atoms: _344  and  _345
REMARK  139  A    between atoms: _344  and  _347
REMARK  140  A    between atoms: _347  and  _348
REMARK  141  A    between atoms: _351  and  _353
REMARK  142  A    between atoms: _353  and  _354
REMARK  143  A    between atoms: _353  and  _356
REMARK  144  A    between atoms: _356  and  _357
REMARK  145  A    between atoms: _360  and  _362
REMARK  146  A    between atoms: _362  and  _363
REMARK  147  A    between atoms: _365  and  _367
REMARK  148  A    between atoms: _367  and  _368
REMARK  149  A    between atoms: _371  and  _373
REMARK  150  A    between atoms: _373  and  _374
REMARK  151  A    between atoms: _373  and  _376
REMARK  152  A    between atoms: _376  and  _377
REMARK  153  A    between atoms: _380  and  _382
REMARK  154  A    between atoms: _382  and  _383
REMARK  155  A    between atoms: _382  and  _385
REMARK  156  A    between atoms: _385  and  _386
REMARK  157  A    between atoms: _389  and  _391
REMARK  158  A    between atoms: _391  and  _392
REMARK  159  A    between atoms: _391  and  _394
REMARK  160  A    between atoms: _394  and  _395
REMARK  161  A    between atoms: _398  and  _400
REMARK  162  A    between atoms: _400  and  _401
REMARK  163  A    between atoms: _400  and  _403
REMARK  164  A    between atoms: _406  and  _408
REMARK  165  A    between atoms: _408  and  _409
REMARK  166  A    between atoms: _408  and  _411
REMARK  167  A    between atoms: _411  and  _412
REMARK  168  A    between atoms: _415  and  _417
REMARK  169  A    between atoms: _417  and  _418
REMARK  170  A    between atoms: _417  and  _420
REMARK  171  A    between atoms: _420  and  _421
REMARK  172  A    between atoms: _421  and  _422
REMARK  173  A    between atoms: _422  and  _423
REMARK  174  A    between atoms: _423  and  _424
REMARK  175  A    between atoms: _428  and  _430
REMARK  176  A    between atoms: _430  and  _431
REMARK  177  A    between atoms: _430  and  _433
REMARK  178  A    between atoms: _433  and  _434
REMARK  179  A    between atoms: _434  and  _435
REMARK  180  A    between atoms: _437  and  _439
REMARK  181  A    between atoms: _439  and  _440
REMARK  182  A    between atoms: _439  and  _442
REMARK  183  A    between atoms: _442  and  _443
REMARK  184  A    between atoms: _446  and  _448
REMARK  185  A    between atoms: _448  and  _449
REMARK  186  A    between atoms: _451  and  _453
REMARK  187  A    between atoms: _453  and  _454
REMARK  188  A    between atoms: _456  and  _458
REMARK  189  A    between atoms: _458  and  _459
REMARK  190  A    between atoms: _458  and  _461
REMARK  191  A    between atoms: _461  and  _462
REMARK  192  A    between atoms: _465  and  _467
REMARK  193  A    between atoms: _467  and  _468
REMARK  194  A    between atoms: _470  and  _472
REMARK  195  A    between atoms: _472  and  _473
REMARK  196  A    between atoms: _475  and  _477
REMARK  197  A    between atoms: _477  and  _478
REMARK  198  A    between atoms: _477  and  _480
REMARK  199  A    between atoms: _480  and  _481
REMARK  200  A    between atoms: _487  and  _489
REMARK  201  A    between atoms: _489  and  _490
REMARK  202  A    between atoms: _489  and  _492
REMARK  203  A    between atoms: _492  and  _493
REMARK  204  A    between atoms: _496  and  _498
REMARK  205  A    between atoms: _498  and  _499
REMARK  206  A    between atoms: _498  and  _501
REMARK  207  A    between atoms: _504  and  _506
REMARK  208  A    between atoms: _506  and  _507
REMARK  209  A    between atoms: _506  and  _509
REMARK  210  A    between atoms: _509  and  _510
REMARK  211  A    between atoms: _513  and  _515
REMARK  212  A    between atoms: _515  and  _516
REMARK  213  A    between atoms: _515  and  _518
REMARK  214  A    between atoms: _518  and  _519
REMARK  215  A    between atoms: _523  and  _524
REMARK  216  A    between atoms: _529  and  _531
REMARK  217  A    between atoms: _531  and  _532
REMARK  218  A    between atoms: _531  and  _534
REMARK  219  A    between atoms: _537  and  _539
REMARK  220  A    between atoms: _539  and  _540
REMARK  221  A    between atoms: _539  and  _542
REMARK  222  A    between atoms: _542  and  _543
REMARK  223  A    between atoms: _548  and  _550
REMARK  224  A    between atoms: _550  and  _551
REMARK  225  A    between atoms: _550  and  _553
REMARK  226  A    between atoms: _553  and  _554
REMARK  227  A    between atoms: _557  and  _559
REMARK  228  A    between atoms: _559  and  _560
REMARK  229  A    between atoms: _559  and  _562
REMARK  230  A    between atoms: _562  and  _563
REMARK  231  A    between atoms: _566  and  _568
REMARK  232  A    between atoms: _568  and  _569
REMARK  233  A    between atoms: _571  and  _573
REMARK  234  A    between atoms: _573  and  _574
REMARK  235  A    between atoms: _573  and  _576
REMARK  236  A    between atoms: _576  and  _577
REMARK  237  A    between atoms: _577  and  _578
REMARK  238  A    between atoms: _578  and  _579
REMARK  239  A    between atoms: _588  and  _590
REMARK  240  A    between atoms: _590  and  _591
REMARK  241  A    between atoms: _590  and  _593
REMARK  242  A    between atoms: _593  and  _594
REMARK                            x       y       z     vdW  Elec       q    Type
REMARK                         _______ _______ _______ _____ _____    ______ ____
ROOT
ATOM      1  CA  VAL A   1      16.416   9.461  24.130  0.00  0.00    +0.133 C 
ENDROOT
BRANCH   1   2
ATOM      2  CB  VAL A   1      15.789  10.889  24.136  0.00  0.00    +0.023 C 
ATOM      3  CG2 VAL A   1      14.361  10.847  23.691  0.00  0.00    +0.002 C 
ATOM      4  CG1 VAL A   1      16.640  11.831  23.298  0.00  0.00    +0.002 C 
ENDBRANCH   1   2
BRANCH   1   5
ATOM      5  N   VAL A   1      16.492   8.901  22.805  0.00  0.00    -0.239 NA
ATOM      6  H   VAL A   1      15.626   8.519  22.373  0.00  0.00    +0.142 HD
ENDBRANCH   1   5
BRANCH   1   7
ATOM      7  C   VAL A   1      15.600   8.532  25.030  0.00  0.00    +0.224 C 
ATOM      8  O   VAL A   1      14.906   7.622  24.537  0.00  0.00    -0.287 OA
ENDBRANCH   1   7
TORSDOF 3
REMARK  Name = ../refined-set-2016/4zip/4zip_pocket.pdb
REMARK  242 active torsions:
REMARK  status: ('A' for Active; 'I' for Inactive)
REMARK    1  A    between atoms: _1  and  _3
REMARK    2  A    between atoms: _3  and  _4
REMARK    3  A    between atoms: _3  and  _6
REMARK    4  A    between atoms: _6  and  _7
REMARK    5  A    between atoms: _7  and  _8
REMARK    6  A    between atoms: _8  and  _9
REMARK    7  A    between atoms: _19  and  _20
REMARK    8  A    between atoms: _25  and  _27
REMARK    9  A    between atoms: _27  and  _28
REMARK   10  A    between atoms: _27  and  _30
REMARK   11  A    between atoms: _30  and  _31
REMARK   12  A    between atoms: _34  and  _36
REMARK   13  A    between atoms: _36  and  _37
REMARK   14  A    between atoms: _36  and  _39
REMARK   15  A    between atoms: _39  and  _40
REMARK   16  A    between atoms: _43  and  _45
REMARK   17  A    between atoms: _45  and  _46
REMARK   18  A    between atoms: _45  and  _48
REMARK   19  A    between atoms: _48  and  _49
REMARK   20  A    between atoms: _52  and  _54
REMARK   21  A    between atoms: _54  and  _55
REMARK   22  A    between atoms: _54  and  _57
REMARK   23  A    between atoms: _57  and  _58
REMARK   24  A    between atoms: _61  and  _63
REMARK   25  A    between atoms: _63  and  _64
REMARK   26  A    between atoms: _63  and  _66
REMARK   27  A    between atoms: _66  and  _67
REMARK   28  A    between atoms: _70  and  _72
REMARK   29  A    between atoms: _72  and  _73
REMARK   30  A    between atoms: _75  and  _77
REMARK   31  A    between atoms: _77  and  _78
REMARK   32  A    between atoms: _81  and  _83
REMARK   33  A    between atoms: _83  and  _84
REMARK   34  A    between atoms: _83  and  _86
REMARK   35  A    between atoms: _86  and  _87
REMARK   36  A    between atoms: _90  and  _92
REMARK   37  A    between atoms: _92  and  _93
REMARK   38  A    between atoms: _92  and  _95
REMARK   39  A    between atoms: _95  and  _96
REMARK   40  A    between atoms: _99  and  _101
REMARK   41  A    between atoms: _101  and  _102
REMARK   42  A    between atoms: _101  and  _104
REMARK   43  A    between atoms: _104  and  _105
REMARK   44  A    between atoms: _108  and  _110
REMARK   45  A    between atoms: _110  and  _111
REMARK   46  A    between atoms: _110  and  _113
REMARK   47  A    between atoms: _116  and  _118
REMARK   48  A    between atoms: _118  and  _119
REMARK   49  A    between atoms: _118  and  _121
REMARK   50  A    between atoms: _121  and  _122
REMARK   51  A    between atoms: _122  and  _123
REMARK   52  A    between atoms: _123  and  _124
REMARK   53  A    between atoms: _124  and  _125
REMARK   54  A    between atoms: _129  and  _131
REMARK   55  A    between atoms: _131  and  _132
REMARK   56  A    between atoms: _131  and  _134
REMARK   57  A    between atoms: _134  and  _135
REMARK   58  A    between atoms: _135  and  _136
REMARK   59  A    between atoms: _138  and  _140
REMARK   60  A    between atoms: _140  and  _141
REMARK   61  A    between atoms: _140  and  _143
REMARK   62  A    between atoms: _143  and  _144
REMARK   63  A    between atoms: _147  and  _149
REMARK   64  A    between atoms: _149  and  _150
REMARK   65  A    between atoms: _152  and  _154
REMARK   66  A    between atoms: _154  and  _155
REMARK   67  A    between atoms: _157  and  _159
REMARK   68  A    between atoms: _159  and  _160
REMARK   69  A    between atoms: _159  and  _162
REMARK   70  A    between atoms: _162  and  _163
REMARK   71  A    between atoms: _166  and  _168
REMARK   72  A    between atoms: _168  and  _169
REMARK   73  A    between atoms: _171  and  _173
REMARK   74  A    between atoms: _173  and  _174
REMARK   75  A    between atoms: _176  and  _178
REMARK   76  A    between atoms: _178  and  _179
REMARK   77  A    between atoms: _178  and  _181
REMARK   78  A    between atoms: _181  and  _182
REMARK   79  A    between atoms: _188  and  _190
REMARK   80  A    between atoms: _190  and  _191
REMARK   81  A    between atoms: _190  and  _193
REMARK   82  A    between atoms: _193  and  _194
REMARK   83  A    between atoms: _197  and  _199
REMARK   84  A    between atoms: _199  and  _200
REMARK   85  A    between atoms: _199  and  _202
REMARK   86  A    between atoms: _205  and  _207
REMARK   87  A    between atoms: _207  and  _208
REMARK   88  A    between atoms: _207  and  _210
REMARK   89  A    between atoms: _210  and  _211
REMARK   90  A    between atoms: _215  and  _216
REMARK   91  A    between atoms: _221  and  _223
REMARK   92  A    between atoms: _223  and  _224
REMARK   93  A    between atoms: _223  and  _226
REMARK   94  A    between atoms: _226  and  _227
REMARK   95  A    between atoms: _231  and  _232
REMARK   96  A    between atoms: _237  and  _239
REMARK   97  A    between atoms: _239  and  _240
REMARK   98  A    between atoms: _239  and  _242
REMARK   99  A    between atoms: _245  and  _247
REMARK  100  A    between atoms: _247  and  _248
REMARK  101  A    between atoms: _247  and  _250
REMARK  102  A    between atoms: _250  and  _251
REMARK  103  A    between atoms: _256  and  _258
REMARK  104  A    between atoms: _258  and  _259
REMARK  105  A    between atoms: _258  and  _261
REMARK  106  A    between atoms: _261  and  _262
REMARK  107  A    between atoms: _265  and  _267
REMARK  108  A    between atoms: _267  and  _268
REMARK  109  A    between atoms: _267  and  _270
REMARK  110  A    between atoms: _270  and  _271
REMARK  111  A    between atoms: _274  and  _276
REMARK  112  A    between atoms: _276  and  _277
REMARK  113  A    between atoms: _279  and  _281
REMARK  114  A    between atoms: _281  and  _282
REMARK  115  A    between atoms: _281  and  _284
REMARK  116  A    between atoms: _284  and  _285
REMARK  117  A    between atoms: _285  and  _286
REMARK  118  A    between atoms: _286  and  _287
REMARK  119  A    between atoms: _296  and  _298
REMARK  120  A    between atoms: _298  and  _299
REMARK  121  A    between atoms: _298  and  _301
REMARK  122  A    between atoms: _301  and  _302
REMARK  123  A    between atoms: _307  and  _309
REMARK  124  A    between atoms: _309  and  _310
REMARK  125  A    between atoms: _309  and  _312
REMARK  126  A    between atoms: _312  and  _313
REMARK  127  A    between atoms: _313  and  _314
REMARK  128  A    between atoms: _314  and  _315
REMARK  129  A    between atoms: _324  and  _326
REMARK  130  A    between atoms: _326  and  _327
REMARK  131  A    between atoms: _326  and  _329
REMARK  132  A    between atoms: _329  and  _330
REMARK  133  A    between atoms: _333  and  _335
REMARK  134  A    between atoms: _335  and  _336
REMARK  135  A    between atoms: _335  and  _338
REMARK  136  A    between atoms: _338  and  _339
REMARK  137  A    between atoms: _342  and  _344
REMARK  138  A    between atoms: _344  and  _345
REMARK  139  A    between atoms: _344  and  _347
REMARK  140  A    between atoms: _347  and  _348
REMARK  141  A    between atoms: _351  and  _353
REMARK  142  A    between atoms: _353  and  _354
REMARK  143  A    between atoms: _353  and  _356
REMARK  144  A    between atoms: _356  and  _357
REMARK  145  A    between atoms: _360  and  _362
REMARK  146  A    between atoms: _362  and  _363
REMARK  147  A    between atoms: _365  and  _367
REMARK  148  A    between atoms: _367  and  _368
REMARK  149  A    between atoms: _371  and  _373
REMARK  150  A    between atoms: _373  and  _374
REMARK  151  A    between atoms: _373  and  _376
REMARK  152  A    between atoms: _376  and  _377
REMARK  153  A    between atoms: _380  and  _382
REMARK  154  A    between atoms: _382  and  _383
REMARK  155  A    between atoms: _382  and  _385
REMARK  156  A    between atoms: _385  and  _386
REMARK  157  A    between atoms: _389  and  _391
REMARK  158  A    between atoms: _391  and  _392
REMARK  159  A    between atoms: _391  and  _394
REMARK  160  A    between atoms: _394  and  _395
REMARK  161  A    between atoms: _398  and  _400
REMARK  162  A    between atoms: _400  and  _401
REMARK  163  A    between atoms: _400  and  _403
REMARK  164  A    between atoms: _406  and  _408
REMARK  165  A    between atoms: _408  and  _409
REMARK  166  A    between atoms: _408  and  _411
REMARK  167  A    between atoms: _411  and  _412
REMARK  168  A    between atoms: _415  and  _417
REMARK  169  A    between atoms: _417  and  _418
REMARK  170  A    between atoms: _417  and  _420
REMARK  171  A    between atoms: _420  and  _421
REMARK  172  A    between atoms: _421  and  _422
REMARK  173  A    between atoms: _422  and  _423
REMARK  174  A    between atoms: _423  and  _424
REMARK  175  A    between atoms: _428  and  _430
REMARK  176  A    between atoms: _430  and  _431
REMARK  177  A    between atoms: _430  and  _433
REMARK  178  A    between atoms: _433  and  _434
REMARK  179  A    between atoms: _434  and  _435
REMARK  180  A    between atoms: _437  and  _439
REMARK  181  A    between atoms: _439  and  _440
REMARK  182  A    between atoms: _439  and  _442
REMARK  183  A    between atoms: _442  and  _443
REMARK  184  A    between atoms: _446  and  _448
REMARK  185  A    between atoms: _448  and  _449
REMARK  186  A    between atoms: _451  and  _453
REMARK  187  A    between atoms: _453  and  _454
REMARK  188  A    between atoms: _456  and  _458
REMARK  189  A    between atoms: _458  and  _459
REMARK  190  A    between atoms: _458  and  _461
REMARK  191  A    between atoms: _461  and  _462
REMARK  192  A    between atoms: _465  and  _467
REMARK  193  A    between atoms: _467  and  _468
REMARK  194  A    between atoms: _470  and  _472
REMARK  195  A    between atoms: _472  and  _473
REMARK  196  A    between atoms: _475  and  _477
REMARK  197  A    between atoms: _477  and  _478
REMARK  198  A    between atoms: _477  and  _480
REMARK  199  A    between atoms: _480  and  _481
REMARK  200  A    between atoms: _487  and  _489
REMARK  201  A    between atoms: _489  and  _490
REMARK  202  A    between atoms: _489  and  _492
REMARK  203  A    between atoms: _492  and  _493
REMARK  204  A    between atoms: _496  and  _498
REMARK  205  A    between atoms: _498  and  _499
REMARK  206  A    between atoms: _498  and  _501
REMARK  207  A    between atoms: _504  and  _506
REMARK  208  A    between atoms: _506  and  _507
REMARK  209  A    between atoms: _506  and  _509
REMARK  210  A    between atoms: _509  and  _510
REMARK  211  A    between atoms: _513  and  _515
REMARK  212  A    between atoms: _515  and  _516
REMARK  213  A    between atoms: _515  and  _518
REMARK  214  A    between atoms: _518  and  _519
REMARK  215  A    between atoms: _523  and  _524
REMARK  216  A    between atoms: _529  and  _531
REMARK  217  A    between atoms: _531  and  _532
REMARK  218  A    between atoms: _531  and  _534
REMARK  219  A    between atoms: _537  and  _539
REMARK  220  A    between atoms: _539  and  _540
REMARK  221  A    between atoms: _539  and  _542
REMARK  222  A    between atoms: _542  and  _543
REMARK  223  A    between atoms: _548  and  _550
REMARK  224  A    between atoms: _550  and  _551
REMARK  225  A    between atoms: _550  and  _553
REMARK  226  A    between atoms: _553  and  _554
REMARK  227  A    between atoms: _557  and  _559
REMARK  228  A    between atoms: _559  and  _560
REMARK  229  A    between atoms: _559  and  _562
REMARK  230  A    between atoms: _562  and  _563
REMARK  231  A    between atoms: _566  and  _568
REMARK  232  A    between atoms: _568  and  _569
REMARK  233  A    between atoms: _571  and  _573
REMARK  234  A    between atoms: _573  and  _574
REMARK  235  A    between atoms: _573  and  _576
REMARK  236  A    between atoms: _576  and  _577
REMARK  237  A    between atoms: _577  and  _578
REMARK  238  A    between atoms: _578  and  _579
REMARK  239  A    between atoms: _588  and  _590
REMARK  240  A    between atoms: _590  and  _591
REMARK  241  A    between atoms: _590  and  _593
REMARK  242  A    between atoms: _593  and  _594
REMARK                            x       y       z     vdW  Elec       q    Type
REMARK                         _______ _______ _______ _____ _____    ______ ____
ROOT
ATOM      1  CA  LEU A   1      13.414  13.276  27.685  0.00  0.00    +0.133 C 
ENDROOT
BRANCH   1   2
ATOM      2  N   LEU A   1      12.547  14.138  28.465  0.00  0.00    -0.239 NA
ATOM      3  H   LEU A   1      12.421  15.123  28.155  0.00  0.00    +0.142 HD
ENDBRANCH   1   2
BRANCH   1   4
ATOM      4  C   LEU A   1      14.855  13.484  28.159  0.00  0.00    +0.224 C 
ATOM      5  O   LEU A   1      15.260  14.608  28.416  0.00  0.00    -0.287 OA
ENDBRANCH   1   4
BRANCH   1   6
ATOM      6  CB  LEU A   1      13.283  13.583  26.189  0.00  0.00    +0.025 C 
BRANCH   6   7
ATOM      7  CG  LEU A   1      11.868  13.649  25.619  0.00  0.00    +0.002 C 
ATOM      8  CD2 LEU A   1      11.080  12.360  25.838  0.00  0.00    +0.000 C 
ATOM      9  CD1 LEU A   1      11.855  14.008  24.146  0.00  0.00    +0.000 C 
ENDBRANCH   6   7
ENDBRANCH   1   6
TORSDOF 4
REMARK  Name = ../refined-set-2016/4zip/4zip_pocket.pdb
REMARK  242 active torsions:
REMARK  status: ('A' for Active; 'I' for Inactive)
REMARK    1  A    between atoms: _1  and  _3
REMARK    2  A    between atoms: _3  and  _4
REMARK    3  A    between atoms: _3  and  _6
REMARK    4  A    between atoms: _6  and  _7
REMARK    5  A    between atoms: _7  and  _8
REMARK    6  A    between atoms: _8  and  _9
REMARK    7  A    between atoms: _19  and  _20
REMARK    8  A    between atoms: _25  and  _27
REMARK    9  A    between atoms: _27  and  _28
REMARK   10  A    between atoms: _27  and  _30
REMARK   11  A    between atoms: _30  and  _31
REMARK   12  A    between atoms: _34  and  _36
REMARK   13  A    between atoms: _36  and  _37
REMARK   14  A    between atoms: _36  and  _39
REMARK   15  A    between atoms: _39  and  _40
REMARK   16  A    between atoms: _43  and  _45
REMARK   17  A    between atoms: _45  and  _46
REMARK   18  A    between atoms: _45  and  _48
REMARK   19  A    between atoms: _48  and  _49
REMARK   20  A    between atoms: _52  and  _54
REMARK   21  A    between atoms: _54  and  _55
REMARK   22  A    between atoms: _54  and  _57
REMARK   23  A    between atoms: _57  and  _58
REMARK   24  A    between atoms: _61  and  _63
REMARK   25  A    between atoms: _63  and  _64
REMARK   26  A    between atoms: _63  and  _66
REMARK   27  A    between atoms: _66  and  _67
REMARK   28  A    between atoms: _70  and  _72
REMARK   29  A    between atoms: _72  and  _73
REMARK   30  A    between atoms: _75  and  _77
REMARK   31  A    between atoms: _77  and  _78
REMARK   32  A    between atoms: _81  and  _83
REMARK   33  A    between atoms: _83  and  _84
REMARK   34  A    between atoms: _83  and  _86
REMARK   35  A    between atoms: _86  and  _87
REMARK   36  A    between atoms: _90  and  _92
REMARK   37  A    between atoms: _92  and  _93
REMARK   38  A    between atoms: _92  and  _95
REMARK   39  A    between atoms: _95  and  _96
REMARK   40  A    between atoms: _99  and  _101
REMARK   41  A    between atoms: _101  and  _102
REMARK   42  A    between atoms: _101  and  _104
REMARK   43  A    between atoms: _104  and  _105
REMARK   44  A    between atoms: _108  and  _110
REMARK   45  A    between atoms: _110  and  _111
REMARK   46  A    between atoms: _110  and  _113
REMARK   47  A    between atoms: _116  and  _118
REMARK   48  A    between atoms: _118  and  _119
REMARK   49  A    between atoms: _118  and  _121
REMARK   50  A    between atoms: _121  and  _122
REMARK   51  A    between atoms: _122  and  _123
REMARK   52  A    between atoms: _123  and  _124
REMARK   53  A    between atoms: _124  and  _125
REMARK   54  A    between atoms: _129  and  _131
REMARK   55  A    between atoms: _131  and  _132
REMARK   56  A    between atoms: _131  and  _134
REMARK   57  A    between atoms: _134  and  _135
REMARK   58  A    between atoms: _135  and  _136
REMARK   59  A    between atoms: _138  and  _140
REMARK   60  A    between atoms: _140  and  _141
REMARK   61  A    between atoms: _140  and  _143
REMARK   62  A    between atoms: _143  and  _144
REMARK   63  A    between atoms: _147  and  _149
REMARK   64  A    between atoms: _149  and  _150
REMARK   65  A    between atoms: _152  and  _154
REMARK   66  A    between atoms: _154  and  _155
REMARK   67  A    between atoms: _157  and  _159
REMARK   68  A    between atoms: _159  and  _160
REMARK   69  A    between atoms: _159  and  _162
REMARK   70  A    between atoms: _162  and  _163
REMARK   71  A    between atoms: _166  and  _168
REMARK   72  A    between atoms: _168  and  _169
REMARK   73  A    between atoms: _171  and  _173
REMARK   74  A    between atoms: _173  and  _174
REMARK   75  A    between atoms: _176  and  _178
REMARK   76  A    between atoms: _178  and  _179
REMARK   77  A    between atoms: _178  and  _181
REMARK   78  A    between atoms: _181  and  _182
REMARK   79  A    between atoms: _188  and  _190
REMARK   80  A    between atoms: _190  and  _191
REMARK   81  A    between atoms: _190  and  _193
REMARK   82  A    between atoms: _193  and  _194
REMARK   83  A    between atoms: _197  and  _199
REMARK   84  A    between atoms: _199  and  _200
REMARK   85  A    between atoms: _199  and  _202
REMARK   86  A    between atoms: _205  and  _207
REMARK   87  A    between atoms: _207  and  _208
REMARK   88  A    between atoms: _207  and  _210
REMARK   89  A    between atoms: _210  and  _211
REMARK   90  A    between atoms: _215  and  _216
REMARK   91  A    between atoms: _221  and  _223
REMARK   92  A    between atoms: _223  and  _224
REMARK   93  A    between atoms: _223  and  _226
REMARK   94  A    between atoms: _226  and  _227
REMARK   95  A    between atoms: _231  and  _232
REMARK   96  A    between atoms: _237  and  _239
REMARK   97  A    between atoms: _239  and  _240
REMARK   98  A    between atoms: _239  and  _242
REMARK   99  A    between atoms: _245  and  _247
REMARK  100  A    between atoms: _247  and  _248
REMARK  101  A    between atoms: _247  and  _250
REMARK  102  A    between atoms: _250  and  _251
REMARK  103  A    between atoms: _256  and  _258
REMARK  104  A    between atoms: _258  and  _259
REMARK  105  A    between atoms: _258  and  _261
REMARK  106  A    between atoms: _261  and  _262
REMARK  107  A    between atoms: _265  and  _267
REMARK  108  A    between atoms: _267  and  _268
REMARK  109  A    between atoms: _267  and  _270
REMARK  110  A    between atoms: _270  and  _271
REMARK  111  A    between atoms: _274  and  _276
REMARK  112  A    between atoms: _276  and  _277
REMARK  113  A    between atoms: _279  and  _281
REMARK  114  A    between atoms: _281  and  _282
REMARK  115  A    between atoms: _281  and  _284
REMARK  116  A    between atoms: _284  and  _285
REMARK  117  A    between atoms: _285  and  _286
REMARK  118  A    between atoms: _286  and  _287
REMARK  119  A    between atoms: _296  and  _298
REMARK  120  A    between atoms: _298  and  _299
REMARK  121  A    between atoms: _298  and  _301
REMARK  122  A    between atoms: _301  and  _302
REMARK  123  A    between atoms: _307  and  _309
REMARK  124  A    between atoms: _309  and  _310
REMARK  125  A    between atoms: _309  and  _312
REMARK  126  A    between atoms: _312  and  _313
REMARK  127  A    between atoms: _313  and  _314
REMARK  128  A    between atoms: _314  and  _315
REMARK  129  A    between atoms: _324  and  _326
REMARK  130  A    between atoms: _326  and  _327
REMARK  131  A    between atoms: _326  and  _329
REMARK  132  A    between atoms: _329  and  _330
REMARK  133  A    between atoms: _333  and  _335
REMARK  134  A    between atoms: _335  and  _336
REMARK  135  A    between atoms: _335  and  _338
REMARK  136  A    between atoms: _338  and  _339
REMARK  137  A    between atoms: _342  and  _344
REMARK  138  A    between atoms: _344  and  _345
REMARK  139  A    between atoms: _344  and  _347
REMARK  140  A    between atoms: _347  and  _348
REMARK  141  A    between atoms: _351  and  _353
REMARK  142  A    between atoms: _353  and  _354
REMARK  143  A    between atoms: _353  and  _356
REMARK  144  A    between atoms: _356  and  _357
REMARK  145  A    between atoms: _360  and  _362
REMARK  146  A    between atoms: _362  and  _363
REMARK  147  A    between atoms: _365  and  _367
REMARK  148  A    between atoms: _367  and  _368
REMARK  149  A    between atoms: _371  and  _373
REMARK  150  A    between atoms: _373  and  _374
REMARK  151  A    between atoms: _373  and  _376
REMARK  152  A    between atoms: _376  and  _377
REMARK  153  A    between atoms: _380  and  _382
REMARK  154  A    between atoms: _382  and  _383
REMARK  155  A    between atoms: _382  and  _385
REMARK  156  A    between atoms: _385  and  _386
REMARK  157  A    between atoms: _389  and  _391
REMARK  158  A    between atoms: _391  and  _392
REMARK  159  A    between atoms: _391  and  _394
REMARK  160  A    between atoms: _394  and  _395
REMARK  161  A    between atoms: _398  and  _400
REMARK  162  A    between atoms: _400  and  _401
REMARK  163  A    between atoms: _400  and  _403
REMARK  164  A    between atoms: _406  and  _408
REMARK  165  A    between atoms: _408  and  _409
REMARK  166  A    between atoms: _408  and  _411
REMARK  167  A    between atoms: _411  and  _412
REMARK  168  A    between atoms: _415  and  _417
REMARK  169  A    between atoms: _417  and  _418
REMARK  170  A    between atoms: _417  and  _420
REMARK  171  A    between atoms: _420  and  _421
REMARK  172  A    between atoms: _421  and  _422
REMARK  173  A    between atoms: _422  and  _423
REMARK  174  A    between atoms: _423  and  _424
REMARK  175  A    between atoms: _428  and  _430
REMARK  176  A    between atoms: _430  and  _431
REMARK  177  A    between atoms: _430  and  _433
REMARK  178  A    between atoms: _433  and  _434
REMARK  179  A    between atoms: _434  and  _435
REMARK  180  A    between atoms: _437  and  _439
REMARK  181  A    between atoms: _439  and  _440
REMARK  182  A    between atoms: _439  and  _442
REMARK  183  A    between atoms: _442  and  _443
REMARK  184  A    between atoms: _446  and  _448
REMARK  185  A    between atoms: _448  and  _449
REMARK  186  A    between atoms: _451  and  _453
REMARK  187  A    between atoms: _453  and  _454
REMARK  188  A    between atoms: _456  and  _458
REMARK  189  A    between atoms: _458  and  _459
REMARK  190  A    between atoms: _458  and  _461
REMARK  191  A    between atoms: _461  and  _462
REMARK  192  A    between atoms: _465  and  _467
REMARK  193  A    between atoms: _467  and  _468
REMARK  194  A    between atoms: _470  and  _472
REMARK  195  A    between atoms: _472  and  _473
REMARK  196  A    between atoms: _475  and  _477
REMARK  197  A    between atoms: _477  and  _478
REMARK  198  A    between atoms: _477  and  _480
REMARK  199  A    between atoms: _480  and  _481
REMARK  200  A    between atoms: _487  and  _489
REMARK  201  A    between atoms: _489  and  _490
REMARK  202  A    between atoms: _489  and  _492
REMARK  203  A    between atoms: _492  and  _493
REMARK  204  A    between atoms: _496  and  _498
REMARK  205  A    between atoms: _498  and  _499
REMARK  206  A    between atoms: _498  and  _501
REMARK  207  A    between atoms: _504  and  _506
REMARK  208  A    between atoms: _506  and  _507
REMARK  209  A    between atoms: _506  and  _509
REMARK  210  A    between atoms: _509  and  _510
REMARK  211  A    between atoms: _513  and  _515
REMARK  212  A    between atoms: _515  and  _516
REMARK  213  A    between atoms: _515  and  _518
REMARK  214  A    between atoms: _518  and  _519
REMARK  215  A    between atoms: _523  and  _524
REMARK  216  A    between atoms: _529  and  _531
REMARK  217  A    between atoms: _531  and  _532
REMARK  218  A    between atoms: _531  and  _534
REMARK  219  A    between atoms: _537  and  _539
REMARK  220  A    between atoms: _539  and  _540
REMARK  221  A    between atoms: _539  and  _542
REMARK  222  A    between atoms: _542  and  _543
REMARK  223  A    between atoms: _548  and  _550
REMARK  224  A    between atoms: _550  and  _551
REMARK  225  A    between atoms: _550  and  _553
REMARK  226  A    between atoms: _553  and  _554
REMARK  227  A    between atoms: _557  and  _559
REMARK  228  A    between atoms: _559  and  _560
REMARK  229  A    between atoms: _559  and  _562
REMARK  230  A    between atoms: _562  and  _563
REMARK  231  A    between atoms: _566  and  _568
REMARK  232  A    between atoms: _568  and  _569
REMARK  233  A    between atoms: _571  and  _573
REMARK  234  A    between atoms: _573  and  _574
REMARK  235  A    between atoms: _573  and  _576
REMARK  236  A    between atoms: _576  and  _577
REMARK  237  A    between atoms: _577  and  _578
REMARK  238  A    between atoms: _578  and  _579
REMARK  239  A    between atoms: _588  and  _590
REMARK  240  A    between atoms: _590  and  _591
REMARK  241  A    between atoms: _590  and  _593
REMARK  242  A    between atoms: _593  and  _594
REMARK                            x       y       z     vdW  Elec       q    Type
REMARK                         _______ _______ _______ _____ _____    ______ ____
ROOT
ATOM      1  C   ILE A   5      14.437  22.295  26.865  0.00  0.00    +0.241 C 
ATOM      2  N   ILE A   6      13.716  23.368  27.137  0.00  0.00    -0.297 N 
ATOM      3  H   ILE A   6      14.149  24.302  26.989  0.00  0.00    +0.150 HD
ATOM      4  O   ILE A   5      14.037  21.122  27.132  0.00  0.00    -0.273 OA
ENDROOT
BRANCH   1   5
ATOM      5  CA  ILE A   5      15.770  22.478  26.201  0.00  0.00    +0.149 C 
BRANCH   5   8
ATOM      6  C   ASN A   4      17.898  22.409  27.411  0.00  0.00    +0.241 C 
ATOM      7  O   ASN A   4      18.072  23.636  27.386  0.00  0.00    -0.273 OA
ATOM      8  N   ILE A   5      16.823  21.808  26.918  0.00  0.00    -0.297 N 
ATOM      9  H   ILE A   5      16.735  20.781  27.059  0.00  0.00    +0.150 HD
BRANCH   6  10
ATOM     10  CA  ASN A   4      18.969  21.519  28.054  0.00  0.00    +0.158 C 
BRANCH  10  12
ATOM     11  C   VAL A   3      20.567  21.808  26.262  0.00  0.00    +0.241 C 
ATOM     12  N   ASN A   4      20.257  21.936  27.539  0.00  0.00    -0.297 N 
ATOM     13  H   ASN A   4      20.955  22.347  28.191  0.00  0.00    +0.150 HD
ATOM     14  O   VAL A   3      19.780  21.220  25.495  0.00  0.00    -0.273 OA
BRANCH  11  15
ATOM     15  CA  VAL A   3      21.864  22.433  25.736  0.00  0.00    +0.149 C 
BRANCH  15  18
ATOM     16  C   PRO A   2      23.537  21.555  24.156  0.00  0.00    +0.241 C 
ATOM     17  O   PRO A   2      24.461  22.098  24.730  0.00  0.00    -0.273 OA
ATOM     18  N   VAL A   3      22.307  21.603  24.618  0.00  0.00    -0.297 N 
ATOM     19  H   VAL A   3      21.595  21.005  24.152  0.00  0.00    +0.150 HD
BRANCH  16  23
ATOM     20  C   THR A   1      22.767  18.826  23.609  0.00  0.00    +0.244 C 
ATOM     21  O   THR A   1      23.513  18.784  24.615  0.00  0.00    -0.273 OA
ATOM     22  N   PRO A   2      22.848  19.769  22.682  0.00  0.00    -0.272 N 
ATOM     23  CA  PRO A   2      23.861  20.805  22.886  0.00  0.00    +0.152 C 
ATOM     24  CB  PRO A   2      23.733  21.707  21.671  0.00  0.00    +0.031 C 
ATOM     25  CG  PRO A   2      22.336  21.423  21.166  0.00  0.00    +0.024 C 
ATOM     26  CD  PRO A   2      22.114  19.984  21.401  0.00  0.00    +0.094 C 
BRANCH  20  27
ATOM     27  CA  THR A   1      21.723  17.727  23.448  0.00  0.00    +0.172 C 
BRANCH  27  28
ATOM     28  N   THR A   1      22.196  16.503  24.034  0.00  0.00    -0.236 NA
ATOM     29  H   THR A   1      22.567  16.553  25.004  0.00  0.00    +0.142 HD
ENDBRANCH  27  28
BRANCH  27  30
ATOM     30  CB  THR A   1      20.348  18.079  24.078  0.00  0.00    +0.135 C 
ATOM     31  CG2 THR A   1      20.399  18.040  25.593  0.00  0.00    +0.034 C 
BRANCH  30  32
ATOM     32  OG1 THR A   1      19.944  19.368  23.676  0.00  0.00    -0.383 OA
ATOM     33  HG1 THR A   1      20.616  20.031  23.973  0.00  0.00    +0.210 HD
ENDBRANCH  30  32
ENDBRANCH  27  30
ENDBRANCH  20  27
ENDBRANCH  16  23
ENDBRANCH  15  18
BRANCH  15  34
ATOM     34  CB  VAL A   3      21.663  23.896  25.349  0.00  0.00    +0.027 C 
ATOM     35  CG2 VAL A   3      21.295  24.870  26.465  0.00  0.00    +0.002 C 
ATOM     36  CG1 VAL A   3      20.566  24.013  24.267  0.00  0.00    +0.002 C 
ENDBRANCH  15  34
ENDBRANCH  11  15
ENDBRANCH  10  12
BRANCH  10  37
ATOM     37  CB  ASN A   4      18.919  21.699  29.561  0.00  0.00    +0.114 C 
BRANCH  37  38
ATOM     38  CG  ASN A   4      19.859  20.818  30.330  0.00  0.00    +0.222 C 
ATOM     39  ND2 ASN A   4      20.336  21.290  31.430  0.00  0.00    -0.329 N 
ATOM     40 HD21 ASN A   4      21.003  20.724  31.993  0.00  0.00    +0.145 HD
ATOM     41 HD22 ASN A   4      20.054  22.237  31.755  0.00  0.00    +0.145 HD
ATOM     42  OD1 ASN A   4      20.132  19.691  29.849  0.00  0.00    -0.275 OA
ENDBRANCH  37  38
ENDBRANCH  10  37
ENDBRANCH   6  10
ENDBRANCH   5   8
BRANCH   5  43
ATOM     43  CB  ILE A   5      15.675  21.852  24.780  0.00  0.00    +0.027 C 
ATOM     44  CG2 ILE A   5      14.357  22.087  24.102  0.00  0.00    +0.002 C 
BRANCH  43  45
ATOM     45  CG1 ILE A   5      16.916  22.262  23.965  0.00  0.00    +0.002 C 
ATOM     46  CD1 ILE A   5      17.219  21.202  22.924  0.00  0.00    +0.000 C 
ENDBRANCH  43  45
ENDBRANCH   5  43
ENDBRANCH   1   5
BRANCH   2  47
ATOM     47  CA  ILE A   6      12.348  23.315  27.632  0.00  0.00    +0.149 C 
BRANCH  47  48
ATOM     48  C   ILE A   6      11.433  23.547  26.421  0.00  0.00    +0.241 C 
ATOM     49  N   GLY A   7      10.727  22.518  26.018  0.00  0.00    -0.295 N 
ATOM     50  H   GLY A   7      10.803  21.622  26.541  0.00  0.00    +0.150 HD
ATOM     51  O   ILE A   6      11.407  24.650  25.866  0.00  0.00    -0.273 OA
BRANCH  49  52
ATOM     52  CA  GLY A   7       9.852  22.585  24.879  0.00  0.00    +0.176 C 
BRANCH  52  53
ATOM     53  C   GLY A   7       8.433  22.849  25.247  0.00  0.00    +0.243 C 
ATOM     54  O   GLY A   7       8.062  23.082  26.385  0.00  0.00    -0.273 OA
ATOM     55  N   ARG A   8       7.547  22.807  24.222  0.00  0.00    -0.297 N 
ATOM     56  H   ARG A   8       7.851  22.431  23.301  0.00  0.00    +0.150 HD
BRANCH  55  57
ATOM     57  CA  ARG A   8       6.191  23.273  24.383  0.00  0.00    +0.149 C 
BRANCH  57  58
ATOM     58  C   ARG A   8       5.393  22.464  25.392  0.00  0.00    +0.241 C 
ATOM     59  O   ARG A   8       4.470  23.010  26.002  0.00  0.00    -0.273 OA
ATOM     60  N   ASN A   9       5.705  21.183  25.561  0.00  0.00    -0.298 N 
ATOM     61  H   ASN A   9       6.471  20.745  25.011  0.00  0.00    +0.150 HD
BRANCH  60  62
ATOM     62  CA  ASN A   9       4.950  20.409  26.534  0.00  0.00    +0.146 C 
BRANCH  62  63
ATOM     63  C   ASN A   9       5.021  21.021  27.917  0.00  0.00    +0.227 C 
ATOM     64  O   ASN A   9       4.027  20.906  28.674  0.00  0.00    -0.286 OA
ENDBRANCH  62  63
BRANCH  62  65
ATOM     65  CB  ASN A   9       5.460  18.949  26.563  0.00  0.00    +0.112 C 
BRANCH  65  66
ATOM     66  CG  ASN A   9       6.784  18.758  27.214  0.00  0.00    +0.222 C 
ATOM     67  ND2 ASN A   9       6.801  17.861  28.206  0.00  0.00    -0.329 N 
ATOM     68 HD21 ASN A   9       7.688  17.659  28.710  0.00  0.00    +0.145 HD
ATOM     69 HD22 ASN A   9       5.927  17.365  28.474  0.00  0.00    +0.145 HD
ATOM     70  OD1 ASN A   9       7.773  19.390  26.833  0.00  0.00    -0.275 OA
ENDBRANCH  65  66
ENDBRANCH  62  65
ENDBRANCH  60  62
ENDBRANCH  57  58
BRANCH  57  71
ATOM     71  CB  ARG A   8       5.440  23.353  23.052  0.00  0.00    +0.033 C 
BRANCH  71  72
ATOM     72  CG  ARG A   8       6.028  24.383  22.106  0.00  0.00    +0.045 C 
BRANCH  72  73
ATOM     73  CD  ARG A   8       5.180  24.637  20.866  0.00  0.00    +0.174 C 
BRANCH  73  74
ATOM     74  NE  ARG A   8       5.056  23.392  20.091  0.00  0.00    -0.265 N 
ATOM     75  CZ  ARG A   8       4.040  22.538  20.150  0.00  0.00    +0.342 C 
ATOM     76  NH2 ARG A   8       2.940  22.756  20.860  0.00  0.00    -0.292 N 
ATOM     77 HH21 ARG A   8       2.841  23.634  21.409  0.00  0.00    +0.255 HD
ATOM     78 HH22 ARG A   8       2.177  22.049  20.867  0.00  0.00    +0.255 HD
ATOM     79  NH1 ARG A   8       4.139  21.394  19.447  0.00  0.00    -0.292 N 
ATOM     80 HH11 ARG A   8       3.363  20.701  19.469  0.00  0.00    +0.255 HD
ATOM     81 HH12 ARG A   8       4.991  21.203  18.882  0.00  0.00    +0.255 HD
ATOM     82  HE  ARG A   8       5.833  23.160  19.439  0.00  0.00    +0.259 HD
ENDBRANCH  73  74
ENDBRANCH  72  73
ENDBRANCH  71  72
ENDBRANCH  57  71
ENDBRANCH  55  57
ENDBRANCH  52  53
ENDBRANCH  49  52
ENDBRANCH  47  48
BRANCH  47  83
ATOM     83  CB  ILE A   6      12.087  24.350  28.726  0.00  0.00    +0.027 C 
ATOM     84  CG2 ILE A   6      10.638  24.231  29.223  0.00  0.00    +0.002 C 
BRANCH  83  85
ATOM     85  CG1 ILE A   6      13.092  24.327  29.864  0.00  0.00    +0.002 C 
ATOM     86  CD1 ILE A   6      13.250  22.946  30.495  0.00  0.00    +0.000 C 
ENDBRANCH  83  85
ENDBRANCH  47  83
ENDBRANCH   2  47
TORSDOF 32
REMARK  Name = ../refined-set-2016/4zip/4zip_pocket.pdb
REMARK  242 active torsions:
REMARK  status: ('A' for Active; 'I' for Inactive)
REMARK    1  A    between atoms: _1  and  _3
REMARK    2  A    between atoms: _3  and  _4
REMARK    3  A    between atoms: _3  and  _6
REMARK    4  A    between atoms: _6  and  _7
REMARK    5  A    between atoms: _7  and  _8
REMARK    6  A    between atoms: _8  and  _9
REMARK    7  A    between atoms: _19  and  _20
REMARK    8  A    between atoms: _25  and  _27
REMARK    9  A    between atoms: _27  and  _28
REMARK   10  A    between atoms: _27  and  _30
REMARK   11  A    between atoms: _30  and  _31
REMARK   12  A    between atoms: _34  and  _36
REMARK   13  A    between atoms: _36  and  _37
REMARK   14  A    between atoms: _36  and  _39
REMARK   15  A    between atoms: _39  and  _40
REMARK   16  A    between atoms: _43  and  _45
REMARK   17  A    between atoms: _45  and  _46
REMARK   18  A    between atoms: _45  and  _48
REMARK   19  A    between atoms: _48  and  _49
REMARK   20  A    between atoms: _52  and  _54
REMARK   21  A    between atoms: _54  and  _55
REMARK   22  A    between atoms: _54  and  _57
REMARK   23  A    between atoms: _57  and  _58
REMARK   24  A    between atoms: _61  and  _63
REMARK   25  A    between atoms: _63  and  _64
REMARK   26  A    between atoms: _63  and  _66
REMARK   27  A    between atoms: _66  and  _67
REMARK   28  A    between atoms: _70  and  _72
REMARK   29  A    between atoms: _72  and  _73
REMARK   30  A    between atoms: _75  and  _77
REMARK   31  A    between atoms: _77  and  _78
REMARK   32  A    between atoms: _81  and  _83
REMARK   33  A    between atoms: _83  and  _84
REMARK   34  A    between atoms: _83  and  _86
REMARK   35  A    between atoms: _86  and  _87
REMARK   36  A    between atoms: _90  and  _92
REMARK   37  A    between atoms: _92  and  _93
REMARK   38  A    between atoms: _92  and  _95
REMARK   39  A    between atoms: _95  and  _96
REMARK   40  A    between atoms: _99  and  _101
REMARK   41  A    between atoms: _101  and  _102
REMARK   42  A    between atoms: _101  and  _104
REMARK   43  A    between atoms: _104  and  _105
REMARK   44  A    between atoms: _108  and  _110
REMARK   45  A    between atoms: _110  and  _111
REMARK   46  A    between atoms: _110  and  _113
REMARK   47  A    between atoms: _116  and  _118
REMARK   48  A    between atoms: _118  and  _119
REMARK   49  A    between atoms: _118  and  _121
REMARK   50  A    between atoms: _121  and  _122
REMARK   51  A    between atoms: _122  and  _123
REMARK   52  A    between atoms: _123  and  _124
REMARK   53  A    between atoms: _124  and  _125
REMARK   54  A    between atoms: _129  and  _131
REMARK   55  A    between atoms: _131  and  _132
REMARK   56  A    between atoms: _131  and  _134
REMARK   57  A    between atoms: _134  and  _135
REMARK   58  A    between atoms: _135  and  _136
REMARK   59  A    between atoms: _138  and  _140
REMARK   60  A    between atoms: _140  and  _141
REMARK   61  A    between atoms: _140  and  _143
REMARK   62  A    between atoms: _143  and  _144
REMARK   63  A    between atoms: _147  and  _149
REMARK   64  A    between atoms: _149  and  _150
REMARK   65  A    between atoms: _152  and  _154
REMARK   66  A    between atoms: _154  and  _155
REMARK   67  A    between atoms: _157  and  _159
REMARK   68  A    between atoms: _159  and  _160
REMARK   69  A    between atoms: _159  and  _162
REMARK   70  A    between atoms: _162  and  _163
REMARK   71  A    between atoms: _166  and  _168
REMARK   72  A    between atoms: _168  and  _169
REMARK   73  A    between atoms: _171  and  _173
REMARK   74  A    between atoms: _173  and  _174
REMARK   75  A    between atoms: _176  and  _178
REMARK   76  A    between atoms: _178  and  _179
REMARK   77  A    between atoms: _178  and  _181
REMARK   78  A    between atoms: _181  and  _182
REMARK   79  A    between atoms: _188  and  _190
REMARK   80  A    between atoms: _190  and  _191
REMARK   81  A    between atoms: _190  and  _193
REMARK   82  A    between atoms: _193  and  _194
REMARK   83  A    between atoms: _197  and  _199
REMARK   84  A    between atoms: _199  and  _200
REMARK   85  A    between atoms: _199  and  _202
REMARK   86  A    between atoms: _205  and  _207
REMARK   87  A    between atoms: _207  and  _208
REMARK   88  A    between atoms: _207  and  _210
REMARK   89  A    between atoms: _210  and  _211
REMARK   90  A    between atoms: _215  and  _216
REMARK   91  A    between atoms: _221  and  _223
REMARK   92  A    between atoms: _223  and  _224
REMARK   93  A    between atoms: _223  and  _226
REMARK   94  A    between atoms: _226  and  _227
REMARK   95  A    between atoms: _231  and  _232
REMARK   96  A    between atoms: _237  and  _239
REMARK   97  A    between atoms: _239  and  _240
REMARK   98  A    between atoms: _239  and  _242
REMARK   99  A    between atoms: _245  and  _247
REMARK  100  A    between atoms: _247  and  _248
REMARK  101  A    between atoms: _247  and  _250
REMARK  102  A    between atoms: _250  and  _251
REMARK  103  A    between atoms: _256  and  _258
REMARK  104  A    between atoms: _258  and  _259
REMARK  105  A    between atoms: _258  and  _261
REMARK  106  A    between atoms: _261  and  _262
REMARK  107  A    between atoms: _265  and  _267
REMARK  108  A    between atoms: _267  and  _268
REMARK  109  A    between atoms: _267  and  _270
REMARK  110  A    between atoms: _270  and  _271
REMARK  111  A    between atoms: _274  and  _276
REMARK  112  A    between atoms: _276  and  _277
REMARK  113  A    between atoms: _279  and  _281
REMARK  114  A    between atoms: _281  and  _282
REMARK  115  A    between atoms: _281  and  _284
REMARK  116  A    between atoms: _284  and  _285
REMARK  117  A    between atoms: _285  and  _286
REMARK  118  A    between atoms: _286  and  _287
REMARK  119  A    between atoms: _296  and  _298
REMARK  120  A    between atoms: _298  and  _299
REMARK  121  A    between atoms: _298  and  _301
REMARK  122  A    between atoms: _301  and  _302
REMARK  123  A    between atoms: _307  and  _309
REMARK  124  A    between atoms: _309  and  _310
REMARK  125  A    between atoms: _309  and  _312
REMARK  126  A    between atoms: _312  and  _313
REMARK  127  A    between atoms: _313  and  _314
REMARK  128  A    between atoms: _314  and  _315
REMARK  129  A    between atoms: _324  and  _326
REMARK  130  A    between atoms: _326  and  _327
REMARK  131  A    between atoms: _326  and  _329
REMARK  132  A    between atoms: _329  and  _330
REMARK  133  A    between atoms: _333  and  _335
REMARK  134  A    between atoms: _335  and  _336
REMARK  135  A    between atoms: _335  and  _338
REMARK  136  A    between atoms: _338  and  _339
REMARK  137  A    between atoms: _342  and  _344
REMARK  138  A    between atoms: _344  and  _345
REMARK  139  A    between atoms: _344  and  _347
REMARK  140  A    between atoms: _347  and  _348
REMARK  141  A    between atoms: _351  and  _353
REMARK  142  A    between atoms: _353  and  _354
REMARK  143  A    between atoms: _353  and  _356
REMARK  144  A    between atoms: _356  and  _357
REMARK  145  A    between atoms: _360  and  _362
REMARK  146  A    between atoms: _362  and  _363
REMARK  147  A    between atoms: _365  and  _367
REMARK  148  A    between atoms: _367  and  _368
REMARK  149  A    between atoms: _371  and  _373
REMARK  150  A    between atoms: _373  and  _374
REMARK  151  A    between atoms: _373  and  _376
REMARK  152  A    between atoms: _376  and  _377
REMARK  153  A    between atoms: _380  and  _382
REMARK  154  A    between atoms: _382  and  _383
REMARK  155  A    between atoms: _382  and  _385
REMARK  156  A    between atoms: _385  and  _386
REMARK  157  A    between atoms: _389  and  _391
REMARK  158  A    between atoms: _391  and  _392
REMARK  159  A    between atoms: _391  and  _394
REMARK  160  A    between atoms: _394  and  _395
REMARK  161  A    between atoms: _398  and  _400
REMARK  162  A    between atoms: _400  and  _401
REMARK  163  A    between atoms: _400  and  _403
REMARK  164  A    between atoms: _406  and  _408
REMARK  165  A    between atoms: _408  and  _409
REMARK  166  A    between atoms: _408  and  _411
REMARK  167  A    between atoms: _411  and  _412
REMARK  168  A    between atoms: _415  and  _417
REMARK  169  A    between atoms: _417  and  _418
REMARK  170  A    between atoms: _417  and  _420
REMARK  171  A    between atoms: _420  and  _421
REMARK  172  A    between atoms: _421  and  _422
REMARK  173  A    between atoms: _422  and  _423
REMARK  174  A    between atoms: _423  and  _424
REMARK  175  A    between atoms: _428  and  _430
REMARK  176  A    between atoms: _430  and  _431
REMARK  177  A    between atoms: _430  and  _433
REMARK  178  A    between atoms: _433  and  _434
REMARK  179  A    between atoms: _434  and  _435
REMARK  180  A    between atoms: _437  and  _439
REMARK  181  A    between atoms: _439  and  _440
REMARK  182  A    between atoms: _439  and  _442
REMARK  183  A    between atoms: _442  and  _443
REMARK  184  A    between atoms: _446  and  _448
REMARK  185  A    between atoms: _448  and  _449
REMARK  186  A    between atoms: _451  and  _453
REMARK  187  A    between atoms: _453  and  _454
REMARK  188  A    between atoms: _456  and  _458
REMARK  189  A    between atoms: _458  and  _459
REMARK  190  A    between atoms: _458  and  _461
REMARK  191  A    between atoms: _461  and  _462
REMARK  192  A    between atoms: _465  and  _467
REMARK  193  A    between atoms: _467  and  _468
REMARK  194  A    between atoms: _470  and  _472
REMARK  195  A    between atoms: _472  and  _473
REMARK  196  A    between atoms: _475  and  _477
REMARK  197  A    between atoms: _477  and  _478
REMARK  198  A    between atoms: _477  and  _480
REMARK  199  A    between atoms: _480  and  _481
REMARK  200  A    between atoms: _487  and  _489
REMARK  201  A    between atoms: _489  and  _490
REMARK  202  A    between atoms: _489  and  _492
REMARK  203  A    between atoms: _492  and  _493
REMARK  204  A    between atoms: _496  and  _498
REMARK  205  A    between atoms: _498  and  _499
REMARK  206  A    between atoms: _498  and  _501
REMARK  207  A    between atoms: _504  and  _506
REMARK  208  A    between atoms: _506  and  _507
REMARK  209  A    between atoms: _506  and  _509
REMARK  210  A    between atoms: _509  and  _510
REMARK  211  A    between atoms: _513  and  _515
REMARK  212  A    between atoms: _515  and  _516
REMARK  213  A    between atoms: _515  and  _518
REMARK  214  A    between atoms: _518  and  _519
REMARK  215  A    between atoms: _523  and  _524
REMARK  216  A    between atoms: _529  and  _531
REMARK  217  A    between atoms: _531  and  _532
REMARK  218  A    between atoms: _531  and  _534
REMARK  219  A    between atoms: _537  and  _539
REMARK  220  A    between atoms: _539  and  _540
REMARK  221  A    between atoms: _539  and  _542
REMARK  222  A    between atoms: _542  and  _543
REMARK  223  A    between atoms: _548  and  _550
REMARK  224  A    between atoms: _550  and  _551
REMARK  225  A    between atoms: _550  and  _553
REMARK  226  A    between atoms: _553  and  _554
REMARK  227  A    between atoms: _557  and  _559
REMARK  228  A    between atoms: _559  and  _560
REMARK  229  A    between atoms: _559  and  _562
REMARK  230  A    between atoms: _562  and  _563
REMARK  231  A    between atoms: _566  and  _568
REMARK  232  A    between atoms: _568  and  _569
REMARK  233  A    between atoms: _571  and  _573
REMARK  234  A    between atoms: _573  and  _574
REMARK  235  A    between atoms: _573  and  _576
REMARK  236  A    between atoms: _576  and  _577
REMARK  237  A    between atoms: _577  and  _578
REMARK  238  A    between atoms: _578  and  _579
REMARK  239  A    between atoms: _588  and  _590
REMARK  240  A    between atoms: _590  and  _591
REMARK  241  A    between atoms: _590  and  _593
REMARK  242  A    between atoms: _593  and  _594
REMARK                            x       y       z     vdW  Elec       q    Type
REMARK                         _______ _______ _______ _____ _____    ______ ____
ROOT
ATOM      1  O   HOH     1      27.916  33.639  11.163  0.00  0.00    +0.000 OA
ENDROOT
TORSDOF 0
REMARK  Name = ../refined-set-2016/4zip/4zip_pocket.pdb
REMARK  242 active torsions:
REMARK  status: ('A' for Active; 'I' for Inactive)
REMARK    1  A    between atoms: _1  and  _3
REMARK    2  A    between atoms: _3  and  _4
REMARK    3  A    between atoms: _3  and  _6
REMARK    4  A    between atoms: _6  and  _7
REMARK    5  A    between atoms: _7  and  _8
REMARK    6  A    between atoms: _8  and  _9
REMARK    7  A    between atoms: _19  and  _20
REMARK    8  A    between atoms: _25  and  _27
REMARK    9  A    between atoms: _27  and  _28
REMARK   10  A    between atoms: _27  and  _30
REMARK   11  A    between atoms: _30  and  _31
REMARK   12  A    between atoms: _34  and  _36
REMARK   13  A    between atoms: _36  and  _37
REMARK   14  A    between atoms: _36  and  _39
REMARK   15  A    between atoms: _39  and  _40
REMARK   16  A    between atoms: _43  and  _45
REMARK   17  A    between atoms: _45  and  _46
REMARK   18  A    between atoms: _45  and  _48
REMARK   19  A    between atoms: _48  and  _49
REMARK   20  A    between atoms: _52  and  _54
REMARK   21  A    between atoms: _54  and  _55
REMARK   22  A    between atoms: _54  and  _57
REMARK   23  A    between atoms: _57  and  _58
REMARK   24  A    between atoms: _61  and  _63
REMARK   25  A    between atoms: _63  and  _64
REMARK   26  A    between atoms: _63  and  _66
REMARK   27  A    between atoms: _66  and  _67
REMARK   28  A    between atoms: _70  and  _72
REMARK   29  A    between atoms: _72  and  _73
REMARK   30  A    between atoms: _75  and  _77
REMARK   31  A    between atoms: _77  and  _78
REMARK   32  A    between atoms: _81  and  _83
REMARK   33  A    between atoms: _83  and  _84
REMARK   34  A    between atoms: _83  and  _86
REMARK   35  A    between atoms: _86  and  _87
REMARK   36  A    between atoms: _90  and  _92
REMARK   37  A    between atoms: _92  and  _93
REMARK   38  A    between atoms: _92  and  _95
REMARK   39  A    between atoms: _95  and  _96
REMARK   40  A    between atoms: _99  and  _101
REMARK   41  A    between atoms: _101  and  _102
REMARK   42  A    between atoms: _101  and  _104
REMARK   43  A    between atoms: _104  and  _105
REMARK   44  A    between atoms: _108  and  _110
REMARK   45  A    between atoms: _110  and  _111
REMARK   46  A    between atoms: _110  and  _113
REMARK   47  A    between atoms: _116  and  _118
REMARK   48  A    between atoms: _118  and  _119
REMARK   49  A    between atoms: _118  and  _121
REMARK   50  A    between atoms: _121  and  _122
REMARK   51  A    between atoms: _122  and  _123
REMARK   52  A    between atoms: _123  and  _124
REMARK   53  A    between atoms: _124  and  _125
REMARK   54  A    between atoms: _129  and  _131
REMARK   55  A    between atoms: _131  and  _132
REMARK   56  A    between atoms: _131  and  _134
REMARK   57  A    between atoms: _134  and  _135
REMARK   58  A    between atoms: _135  and  _136
REMARK   59  A    between atoms: _138  and  _140
REMARK   60  A    between atoms: _140  and  _141
REMARK   61  A    between atoms: _140  and  _143
REMARK   62  A    between atoms: _143  and  _144
REMARK   63  A    between atoms: _147  and  _149
REMARK   64  A    between atoms: _149  and  _150
REMARK   65  A    between atoms: _152  and  _154
REMARK   66  A    between atoms: _154  and  _155
REMARK   67  A    between atoms: _157  and  _159
REMARK   68  A    between atoms: _159  and  _160
REMARK   69  A    between atoms: _159  and  _162
REMARK   70  A    between atoms: _162  and  _163
REMARK   71  A    between atoms: _166  and  _168
REMARK   72  A    between atoms: _168  and  _169
REMARK   73  A    between atoms: _171  and  _173
REMARK   74  A    between atoms: _173  and  _174
REMARK   75  A    between atoms: _176  and  _178
REMARK   76  A    between atoms: _178  and  _179
REMARK   77  A    between atoms: _178  and  _181
REMARK   78  A    between atoms: _181  and  _182
REMARK   79  A    between atoms: _188  and  _190
REMARK   80  A    between atoms: _190  and  _191
REMARK   81  A    between atoms: _190  and  _193
REMARK   82  A    between atoms: _193  and  _194
REMARK   83  A    between atoms: _197  and  _199
REMARK   84  A    between atoms: _199  and  _200
REMARK   85  A    between atoms: _199  and  _202
REMARK   86  A    between atoms: _205  and  _207
REMARK   87  A    between atoms: _207  and  _208
REMARK   88  A    between atoms: _207  and  _210
REMARK   89  A    between atoms: _210  and  _211
REMARK   90  A    between atoms: _215  and  _216
REMARK   91  A    between atoms: _221  and  _223
REMARK   92  A    between atoms: _223  and  _224
REMARK   93  A    between atoms: _223  and  _226
REMARK   94  A    between atoms: _226  and  _227
REMARK   95  A    between atoms: _231  and  _232
REMARK   96  A    between atoms: _237  and  _239
REMARK   97  A    between atoms: _239  and  _240
REMARK   98  A    between atoms: _239  and  _242
REMARK   99  A    between atoms: _245  and  _247
REMARK  100  A    between atoms: _247  and  _248
REMARK  101  A    between atoms: _247  and  _250
REMARK  102  A    between atoms: _250  and  _251
REMARK  103  A    between atoms: _256  and  _258
REMARK  104  A    between atoms: _258  and  _259
REMARK  105  A    between atoms: _258  and  _261
REMARK  106  A    between atoms: _261  and  _262
REMARK  107  A    between atoms: _265  and  _267
REMARK  108  A    between atoms: _267  and  _268
REMARK  109  A    between atoms: _267  and  _270
REMARK  110  A    between atoms: _270  and  _271
REMARK  111  A    between atoms: _274  and  _276
REMARK  112  A    between atoms: _276  and  _277
REMARK  113  A    between atoms: _279  and  _281
REMARK  114  A    between atoms: _281  and  _282
REMARK  115  A    between atoms: _281  and  _284
REMARK  116  A    between atoms: _284  and  _285
REMARK  117  A    between atoms: _285  and  _286
REMARK  118  A    between atoms: _286  and  _287
REMARK  119  A    between atoms: _296  and  _298
REMARK  120  A    between atoms: _298  and  _299
REMARK  121  A    between atoms: _298  and  _301
REMARK  122  A    between atoms: _301  and  _302
REMARK  123  A    between atoms: _307  and  _309
REMARK  124  A    between atoms: _309  and  _310
REMARK  125  A    between atoms: _309  and  _312
REMARK  126  A    between atoms: _312  and  _313
REMARK  127  A    between atoms: _313  and  _314
REMARK  128  A    between atoms: _314  and  _315
REMARK  129  A    between atoms: _324  and  _326
REMARK  130  A    between atoms: _326  and  _327
REMARK  131  A    between atoms: _326  and  _329
REMARK  132  A    between atoms: _329  and  _330
REMARK  133  A    between atoms: _333  and  _335
REMARK  134  A    between atoms: _335  and  _336
REMARK  135  A    between atoms: _335  and  _338
REMARK  136  A    between atoms: _338  and  _339
REMARK  137  A    between atoms: _342  and  _344
REMARK  138  A    between atoms: _344  and  _345
REMARK  139  A    between atoms: _344  and  _347
REMARK  140  A    between atoms: _347  and  _348
REMARK  141  A    between atoms: _351  and  _353
REMARK  142  A    between atoms: _353  and  _354
REMARK  143  A    between atoms: _353  and  _356
REMARK  144  A    between atoms: _356  and  _357
REMARK  145  A    between atoms: _360  and  _362
REMARK  146  A    between atoms: _362  and  _363
REMARK  147  A    between atoms: _365  and  _367
REMARK  148  A    between atoms: _367  and  _368
REMARK  149  A    between atoms: _371  and  _373
REMARK  150  A    between atoms: _373  and  _374
REMARK  151  A    between atoms: _373  and  _376
REMARK  152  A    between atoms: _376  and  _377
REMARK  153  A    between atoms: _380  and  _382
REMARK  154  A    between atoms: _382  and  _383
REMARK  155  A    between atoms: _382  and  _385
REMARK  156  A    between atoms: _385  and  _386
REMARK  157  A    between atoms: _389  and  _391
REMARK  158  A    between atoms: _391  and  _392
REMARK  159  A    between atoms: _391  and  _394
REMARK  160  A    between atoms: _394  and  _395
REMARK  161  A    between atoms: _398  and  _400
REMARK  162  A    between atoms: _400  and  _401
REMARK  163  A    between atoms: _400  and  _403
REMARK  164  A    between atoms: _406  and  _408
REMARK  165  A    between atoms: _408  and  _409
REMARK  166  A    between atoms: _408  and  _411
REMARK  167  A    between atoms: _411  and  _412
REMARK  168  A    between atoms: _415  and  _417
REMARK  169  A    between atoms: _417  and  _418
REMARK  170  A    between atoms: _417  and  _420
REMARK  171  A    between atoms: _420  and  _421
REMARK  172  A    between atoms: _421  and  _422
REMARK  173  A    between atoms: _422  and  _423
REMARK  174  A    between atoms: _423  and  _424
REMARK  175  A    between atoms: _428  and  _430
REMARK  176  A    between atoms: _430  and  _431
REMARK  177  A    between atoms: _430  and  _433
REMARK  178  A    between atoms: _433  and  _434
REMARK  179  A    between atoms: _434  and  _435
REMARK  180  A    between atoms: _437  and  _439
REMARK  181  A    between atoms: _439  and  _440
REMARK  182  A    between atoms: _439  and  _442
REMARK  183  A    between atoms: _442  and  _443
REMARK  184  A    between atoms: _446  and  _448
REMARK  185  A    between atoms: _448  and  _449
REMARK  186  A    between atoms: _451  and  _453
REMARK  187  A    between atoms: _453  and  _454
REMARK  188  A    between atoms: _456  and  _458
REMARK  189  A    between atoms: _458  and  _459
REMARK  190  A    between atoms: _458  and  _461
REMARK  191  A    between atoms: _461  and  _462
REMARK  192  A    between atoms: _465  and  _467
REMARK  193  A    between atoms: _467  and  _468
REMARK  194  A    between atoms: _470  and  _472
REMARK  195  A    between atoms: _472  and  _473
REMARK  196  A    between atoms: _475  and  _477
REMARK  197  A    between atoms: _477  and  _478
REMARK  198  A    between atoms: _477  and  _480
REMARK  199  A    between atoms: _480  and  _481
REMARK  200  A    between atoms: _487  and  _489
REMARK  201  A    between atoms: _489  and  _490
REMARK  202  A    between atoms: _489  and  _492
REMARK  203  A    between atoms: _492  and  _493
REMARK  204  A    between atoms: _496  and  _498
REMARK  205  A    between atoms: _498  and  _499
REMARK  206  A    between atoms: _498  and  _501
REMARK  207  A    between atoms: _504  and  _506
REMARK  208  A    between atoms: _506  and  _507
REMARK  209  A    between atoms: _506  and  _509
REMARK  210  A    between atoms: _509  and  _510
REMARK  211  A    between atoms: _513  and  _515
REMARK  212  A    between atoms: _515  and  _516
REMARK  213  A    between atoms: _515  and  _518
REMARK  214  A    between atoms: _518  and  _519
REMARK  215  A    between atoms: _523  and  _524
REMARK  216  A    between atoms: _529  and  _531
REMARK  217  A    between atoms: _531  and  _532
REMARK  218  A    between atoms: _531  and  _534
REMARK  219  A    between atoms: _537  and  _539
REMARK  220  A    between atoms: _539  and  _540
REMARK  221  A    between atoms: _539  and  _542
REMARK  222  A    between atoms: _542  and  _543
REMARK  223  A    between atoms: _548  and  _550
REMARK  224  A    between atoms: _550  and  _551
REMARK  225  A    between atoms: _550  and  _553
REMARK  226  A    between atoms: _553  and  _554
REMARK  227  A    between atoms: _557  and  _559
REMARK  228  A    between atoms: _559  and  _560
REMARK  229  A    between atoms: _559  and  _562
REMARK  230  A    between atoms: _562  and  _563
REMARK  231  A    between atoms: _566  and  _568
REMARK  232  A    between atoms: _568  and  _569
REMARK  233  A    between atoms: _571  and  _573
REMARK  234  A    between atoms: _573  and  _574
REMARK  235  A    between atoms: _573  and  _576
REMARK  236  A    between atoms: _576  and  _577
REMARK  237  A    between atoms: _577  and  _578
REMARK  238  A    between atoms: _578  and  _579
REMARK  239  A    between atoms: _588  and  _590
REMARK  240  A    between atoms: _590  and  _591
REMARK  241  A    between atoms: _590  and  _593
REMARK  242  A    between atoms: _593  and  _594
REMARK                            x       y       z     vdW  Elec       q    Type
REMARK                         _______ _______ _______ _____ _____    ______ ____
ROOT
ATOM      1  O   HOH     1      30.177  30.215  12.731  0.00  0.00    +0.000 OA
ENDROOT
TORSDOF 0
REMARK  Name = ../refined-set-2016/4zip/4zip_pocket.pdb
REMARK  242 active torsions:
REMARK  status: ('A' for Active; 'I' for Inactive)
REMARK    1  A    between atoms: _1  and  _3
REMARK    2  A    between atoms: _3  and  _4
REMARK    3  A    between atoms: _3  and  _6
REMARK    4  A    between atoms: _6  and  _7
REMARK    5  A    between atoms: _7  and  _8
REMARK    6  A    between atoms: _8  and  _9
REMARK    7  A    between atoms: _19  and  _20
REMARK    8  A    between atoms: _25  and  _27
REMARK    9  A    between atoms: _27  and  _28
REMARK   10  A    between atoms: _27  and  _30
REMARK   11  A    between atoms: _30  and  _31
REMARK   12  A    between atoms: _34  and  _36
REMARK   13  A    between atoms: _36  and  _37
REMARK   14  A    between atoms: _36  and  _39
REMARK   15  A    between atoms: _39  and  _40
REMARK   16  A    between atoms: _43  and  _45
REMARK   17  A    between atoms: _45  and  _46
REMARK   18  A    between atoms: _45  and  _48
REMARK   19  A    between atoms: _48  and  _49
REMARK   20  A    between atoms: _52  and  _54
REMARK   21  A    between atoms: _54  and  _55
REMARK   22  A    between atoms: _54  and  _57
REMARK   23  A    between atoms: _57  and  _58
REMARK   24  A    between atoms: _61  and  _63
REMARK   25  A    between atoms: _63  and  _64
REMARK   26  A    between atoms: _63  and  _66
REMARK   27  A    between atoms: _66  and  _67
REMARK   28  A    between atoms: _70  and  _72
REMARK   29  A    between atoms: _72  and  _73
REMARK   30  A    between atoms: _75  and  _77
REMARK   31  A    between atoms: _77  and  _78
REMARK   32  A    between atoms: _81  and  _83
REMARK   33  A    between atoms: _83  and  _84
REMARK   34  A    between atoms: _83  and  _86
REMARK   35  A    between atoms: _86  and  _87
REMARK   36  A    between atoms: _90  and  _92
REMARK   37  A    between atoms: _92  and  _93
REMARK   38  A    between atoms: _92  and  _95
REMARK   39  A    between atoms: _95  and  _96
REMARK   40  A    between atoms: _99  and  _101
REMARK   41  A    between atoms: _101  and  _102
REMARK   42  A    between atoms: _101  and  _104
REMARK   43  A    between atoms: _104  and  _105
REMARK   44  A    between atoms: _108  and  _110
REMARK   45  A    between atoms: _110  and  _111
REMARK   46  A    between atoms: _110  and  _113
REMARK   47  A    between atoms: _116  and  _118
REMARK   48  A    between atoms: _118  and  _119
REMARK   49  A    between atoms: _118  and  _121
REMARK   50  A    between atoms: _121  and  _122
REMARK   51  A    between atoms: _122  and  _123
REMARK   52  A    between atoms: _123  and  _124
REMARK   53  A    between atoms: _124  and  _125
REMARK   54  A    between atoms: _129  and  _131
REMARK   55  A    between atoms: _131  and  _132
REMARK   56  A    between atoms: _131  and  _134
REMARK   57  A    between atoms: _134  and  _135
REMARK   58  A    between atoms: _135  and  _136
REMARK   59  A    between atoms: _138  and  _140
REMARK   60  A    between atoms: _140  and  _141
REMARK   61  A    between atoms: _140  and  _143
REMARK   62  A    between atoms: _143  and  _144
REMARK   63  A    between atoms: _147  and  _149
REMARK   64  A    between atoms: _149  and  _150
REMARK   65  A    between atoms: _152  and  _154
REMARK   66  A    between atoms: _154  and  _155
REMARK   67  A    between atoms: _157  and  _159
REMARK   68  A    between atoms: _159  and  _160
REMARK   69  A    between atoms: _159  and  _162
REMARK   70  A    between atoms: _162  and  _163
REMARK   71  A    between atoms: _166  and  _168
REMARK   72  A    between atoms: _168  and  _169
REMARK   73  A    between atoms: _171  and  _173
REMARK   74  A    between atoms: _173  and  _174
REMARK   75  A    between atoms: _176  and  _178
REMARK   76  A    between atoms: _178  and  _179
REMARK   77  A    between atoms: _178  and  _181
REMARK   78  A    between atoms: _181  and  _182
REMARK   79  A    between atoms: _188  and  _190
REMARK   80  A    between atoms: _190  and  _191
REMARK   81  A    between atoms: _190  and  _193
REMARK   82  A    between atoms: _193  and  _194
REMARK   83  A    between atoms: _197  and  _199
REMARK   84  A    between atoms: _199  and  _200
REMARK   85  A    between atoms: _199  and  _202
REMARK   86  A    between atoms: _205  and  _207
REMARK   87  A    between atoms: _207  and  _208
REMARK   88  A    between atoms: _207  and  _210
REMARK   89  A    between atoms: _210  and  _211
REMARK   90  A    between atoms: _215  and  _216
REMARK   91  A    between atoms: _221  and  _223
REMARK   92  A    between atoms: _223  and  _224
REMARK   93  A    between atoms: _223  and  _226
REMARK   94  A    between atoms: _226  and  _227
REMARK   95  A    between atoms: _231  and  _232
REMARK   96  A    between atoms: _237  and  _239
REMARK   97  A    between atoms: _239  and  _240
REMARK   98  A    between atoms: _239  and  _242
REMARK   99  A    between atoms: _245  and  _247
REMARK  100  A    between atoms: _247  and  _248
REMARK  101  A    between atoms: _247  and  _250
REMARK  102  A    between atoms: _250  and  _251
REMARK  103  A    between atoms: _256  and  _258
REMARK  104  A    between atoms: _258  and  _259
REMARK  105  A    between atoms: _258  and  _261
REMARK  106  A    between atoms: _261  and  _262
REMARK  107  A    between atoms: _265  and  _267
REMARK  108  A    between atoms: _267  and  _268
REMARK  109  A    between atoms: _267  and  _270
REMARK  110  A    between atoms: _270  and  _271
REMARK  111  A    between atoms: _274  and  _276
REMARK  112  A    between atoms: _276  and  _277
REMARK  113  A    between atoms: _279  and  _281
REMARK  114  A    between atoms: _281  and  _282
REMARK  115  A    between atoms: _281  and  _284
REMARK  116  A    between atoms: _284  and  _285
REMARK  117  A    between atoms: _285  and  _286
REMARK  118  A    between atoms: _286  and  _287
REMARK  119  A    between atoms: _296  and  _298
REMARK  120  A    between atoms: _298  and  _299
REMARK  121  A    between atoms: _298  and  _301
REMARK  122  A    between atoms: _301  and  _302
REMARK  123  A    between atoms: _307  and  _309
REMARK  124  A    between atoms: _309  and  _310
REMARK  125  A    between atoms: _309  and  _312
REMARK  126  A    between atoms: _312  and  _313
REMARK  127  A    between atoms: _313  and  _314
REMARK  128  A    between atoms: _314  and  _315
REMARK  129  A    between atoms: _324  and  _326
REMARK  130  A    between atoms: _326  and  _327
REMARK  131  A    between atoms: _326  and  _329
REMARK  132  A    between atoms: _329  and  _330
REMARK  133  A    between atoms: _333  and  _335
REMARK  134  A    between atoms: _335  and  _336
REMARK  135  A    between atoms: _335  and  _338
REMARK  136  A    between atoms: _338  and  _339
REMARK  137  A    between atoms: _342  and  _344
REMARK  138  A    between atoms: _344  and  _345
REMARK  139  A    between atoms: _344  and  _347
REMARK  140  A    between atoms: _347  and  _348
REMARK  141  A    between atoms: _351  and  _353
REMARK  142  A    between atoms: _353  and  _354
REMARK  143  A    between atoms: _353  and  _356
REMARK  144  A    between atoms: _356  and  _357
REMARK  145  A    between atoms: _360  and  _362
REMARK  146  A    between atoms: _362  and  _363
REMARK  147  A    between atoms: _365  and  _367
REMARK  148  A    between atoms: _367  and  _368
REMARK  149  A    between atoms: _371  and  _373
REMARK  150  A    between atoms: _373  and  _374
REMARK  151  A    between atoms: _373  and  _376
REMARK  152  A    between atoms: _376  and  _377
REMARK  153  A    between atoms: _380  and  _382
REMARK  154  A    between atoms: _382  and  _383
REMARK  155  A    between atoms: _382  and  _385
REMARK  156  A    between atoms: _385  and  _386
REMARK  157  A    between atoms: _389  and  _391
REMARK  158  A    between atoms: _391  and  _392
REMARK  159  A    between atoms: _391  and  _394
REMARK  160  A    between atoms: _394  and  _395
REMARK  161  A    between atoms: _398  and  _400
REMARK  162  A    between atoms: _400  and  _401
REMARK  163  A    between atoms: _400  and  _403
REMARK  164  A    between atoms: _406  and  _408
REMARK  165  A    between atoms: _408  and  _409
REMARK  166  A    between atoms: _408  and  _411
REMARK  167  A    between atoms: _411  and  _412
REMARK  168  A    between atoms: _415  and  _417
REMARK  169  A    between atoms: _417  and  _418
REMARK  170  A    between atoms: _417  and  _420
REMARK  171  A    between atoms: _420  and  _421
REMARK  172  A    between atoms: _421  and  _422
REMARK  173  A    between atoms: _422  and  _423
REMARK  174  A    between atoms: _423  and  _424
REMARK  175  A    between atoms: _428  and  _430
REMARK  176  A    between atoms: _430  and  _431
REMARK  177  A    between atoms: _430  and  _433
REMARK  178  A    between atoms: _433  and  _434
REMARK  179  A    between atoms: _434  and  _435
REMARK  180  A    between atoms: _437  and  _439
REMARK  181  A    between atoms: _439  and  _440
REMARK  182  A    between atoms: _439  and  _442
REMARK  183  A    between atoms: _442  and  _443
REMARK  184  A    between atoms: _446  and  _448
REMARK  185  A    between atoms: _448  and  _449
REMARK  186  A    between atoms: _451  and  _453
REMARK  187  A    between atoms: _453  and  _454
REMARK  188  A    between atoms: _456  and  _458
REMARK  189  A    between atoms: _458  and  _459
REMARK  190  A    between atoms: _458  and  _461
REMARK  191  A    between atoms: _461  and  _462
REMARK  192  A    between atoms: _465  and  _467
REMARK  193  A    between atoms: _467  and  _468
REMARK  194  A    between atoms: _470  and  _472
REMARK  195  A    between atoms: _472  and  _473
REMARK  196  A    between atoms: _475  and  _477
REMARK  197  A    between atoms: _477  and  _478
REMARK  198  A    between atoms: _477  and  _480
REMARK  199  A    between atoms: _480  and  _481
REMARK  200  A    between atoms: _487  and  _489
REMARK  201  A    between atoms: _489  and  _490
REMARK  202  A    between atoms: _489  and  _492
REMARK  203  A    between atoms: _492  and  _493
REMARK  204  A    between atoms: _496  and  _498
REMARK  205  A    between atoms: _498  and  _499
REMARK  206  A    between atoms: _498  and  _501
REMARK  207  A    between atoms: _504  and  _506
REMARK  208  A    between atoms: _506  and  _507
REMARK  209  A    between atoms: _506  and  _509
REMARK  210  A    between atoms: _509  and  _510
REMARK  211  A    between atoms: _513  and  _515
REMARK  212  A    between atoms: _515  and  _516
REMARK  213  A    between atoms: _515  and  _518
REMARK  214  A    between atoms: _518  and  _519
REMARK  215  A    between atoms: _523  and  _524
REMARK  216  A    between atoms: _529  and  _531
REMARK  217  A    between atoms: _531  and  _532
REMARK  218  A    between atoms: _531  and  _534
REMARK  219  A    between atoms: _537  and  _539
REMARK  220  A    between atoms: _539  and  _540
REMARK  221  A    between atoms: _539  and  _542
REMARK  222  A    between atoms: _542  and  _543
REMARK  223  A    between atoms: _548  and  _550
REMARK  224  A    between atoms: _550  and  _551
REMARK  225  A    between atoms: _550  and  _553
REMARK  226  A    between atoms: _553  and  _554
REMARK  227  A    between atoms: _557  and  _559
REMARK  228  A    between atoms: _559  and  _560
REMARK  229  A    between atoms: _559  and  _562
REMARK  230  A    between atoms: _562  and  _563
REMARK  231  A    between atoms: _566  and  _568
REMARK  232  A    between atoms: _568  and  _569
REMARK  233  A    between atoms: _571  and  _573
REMARK  234  A    between atoms: _573  and  _574
REMARK  235  A    between atoms: _573  and  _576
REMARK  236  A    between atoms: _576  and  _577
REMARK  237  A    between atoms: _577  and  _578
REMARK  238  A    between atoms: _578  and  _579
REMARK  239  A    between atoms: _588  and  _590
REMARK  240  A    between atoms: _590  and  _591
REMARK  241  A    between atoms: _590  and  _593
REMARK  242  A    between atoms: _593  and  _594
REMARK                            x       y       z     vdW  Elec       q    Type
REMARK                         _______ _______ _______ _____ _____    ______ ____
ROOT
ATOM      1  O   HOH     1       9.103  20.583   7.646  0.00  0.00    +0.000 OA
ENDROOT
TORSDOF 0
REMARK  Name = ../refined-set-2016/4zip/4zip_pocket.pdb
REMARK  242 active torsions:
REMARK  status: ('A' for Active; 'I' for Inactive)
REMARK    1  A    between atoms: _1  and  _3
REMARK    2  A    between atoms: _3  and  _4
REMARK    3  A    between atoms: _3  and  _6
REMARK    4  A    between atoms: _6  and  _7
REMARK    5  A    between atoms: _7  and  _8
REMARK    6  A    between atoms: _8  and  _9
REMARK    7  A    between atoms: _19  and  _20
REMARK    8  A    between atoms: _25  and  _27
REMARK    9  A    between atoms: _27  and  _28
REMARK   10  A    between atoms: _27  and  _30
REMARK   11  A    between atoms: _30  and  _31
REMARK   12  A    between atoms: _34  and  _36
REMARK   13  A    between atoms: _36  and  _37
REMARK   14  A    between atoms: _36  and  _39
REMARK   15  A    between atoms: _39  and  _40
REMARK   16  A    between atoms: _43  and  _45
REMARK   17  A    between atoms: _45  and  _46
REMARK   18  A    between atoms: _45  and  _48
REMARK   19  A    between atoms: _48  and  _49
REMARK   20  A    between atoms: _52  and  _54
REMARK   21  A    between atoms: _54  and  _55
REMARK   22  A    between atoms: _54  and  _57
REMARK   23  A    between atoms: _57  and  _58
REMARK   24  A    between atoms: _61  and  _63
REMARK   25  A    between atoms: _63  and  _64
REMARK   26  A    between atoms: _63  and  _66
REMARK   27  A    between atoms: _66  and  _67
REMARK   28  A    between atoms: _70  and  _72
REMARK   29  A    between atoms: _72  and  _73
REMARK   30  A    between atoms: _75  and  _77
REMARK   31  A    between atoms: _77  and  _78
REMARK   32  A    between atoms: _81  and  _83
REMARK   33  A    between atoms: _83  and  _84
REMARK   34  A    between atoms: _83  and  _86
REMARK   35  A    between atoms: _86  and  _87
REMARK   36  A    between atoms: _90  and  _92
REMARK   37  A    between atoms: _92  and  _93
REMARK   38  A    between atoms: _92  and  _95
REMARK   39  A    between atoms: _95  and  _96
REMARK   40  A    between atoms: _99  and  _101
REMARK   41  A    between atoms: _101  and  _102
REMARK   42  A    between atoms: _101  and  _104
REMARK   43  A    between atoms: _104  and  _105
REMARK   44  A    between atoms: _108  and  _110
REMARK   45  A    between atoms: _110  and  _111
REMARK   46  A    between atoms: _110  and  _113
REMARK   47  A    between atoms: _116  and  _118
REMARK   48  A    between atoms: _118  and  _119
REMARK   49  A    between atoms: _118  and  _121
REMARK   50  A    between atoms: _121  and  _122
REMARK   51  A    between atoms: _122  and  _123
REMARK   52  A    between atoms: _123  and  _124
REMARK   53  A    between atoms: _124  and  _125
REMARK   54  A    between atoms: _129  and  _131
REMARK   55  A    between atoms: _131  and  _132
REMARK   56  A    between atoms: _131  and  _134
REMARK   57  A    between atoms: _134  and  _135
REMARK   58  A    between atoms: _135  and  _136
REMARK   59  A    between atoms: _138  and  _140
REMARK   60  A    between atoms: _140  and  _141
REMARK   61  A    between atoms: _140  and  _143
REMARK   62  A    between atoms: _143  and  _144
REMARK   63  A    between atoms: _147  and  _149
REMARK   64  A    between atoms: _149  and  _150
REMARK   65  A    between atoms: _152  and  _154
REMARK   66  A    between atoms: _154  and  _155
REMARK   67  A    between atoms: _157  and  _159
REMARK   68  A    between atoms: _159  and  _160
REMARK   69  A    between atoms: _159  and  _162
REMARK   70  A    between atoms: _162  and  _163
REMARK   71  A    between atoms: _166  and  _168
REMARK   72  A    between atoms: _168  and  _169
REMARK   73  A    between atoms: _171  and  _173
REMARK   74  A    between atoms: _173  and  _174
REMARK   75  A    between atoms: _176  and  _178
REMARK   76  A    between atoms: _178  and  _179
REMARK   77  A    between atoms: _178  and  _181
REMARK   78  A    between atoms: _181  and  _182
REMARK   79  A    between atoms: _188  and  _190
REMARK   80  A    between atoms: _190  and  _191
REMARK   81  A    between atoms: _190  and  _193
REMARK   82  A    between atoms: _193  and  _194
REMARK   83  A    between atoms: _197  and  _199
REMARK   84  A    between atoms: _199  and  _200
REMARK   85  A    between atoms: _199  and  _202
REMARK   86  A    between atoms: _205  and  _207
REMARK   87  A    between atoms: _207  and  _208
REMARK   88  A    between atoms: _207  and  _210
REMARK   89  A    between atoms: _210  and  _211
REMARK   90  A    between atoms: _215  and  _216
REMARK   91  A    between atoms: _221  and  _223
REMARK   92  A    between atoms: _223  and  _224
REMARK   93  A    between atoms: _223  and  _226
REMARK   94  A    between atoms: _226  and  _227
REMARK   95  A    between atoms: _231  and  _232
REMARK   96  A    between atoms: _237  and  _239
REMARK   97  A    between atoms: _239  and  _240
REMARK   98  A    between atoms: _239  and  _242
REMARK   99  A    between atoms: _245  and  _247
REMARK  100  A    between atoms: _247  and  _248
REMARK  101  A    between atoms: _247  and  _250
REMARK  102  A    between atoms: _250  and  _251
REMARK  103  A    between atoms: _256  and  _258
REMARK  104  A    between atoms: _258  and  _259
REMARK  105  A    between atoms: _258  and  _261
REMARK  106  A    between atoms: _261  and  _262
REMARK  107  A    between atoms: _265  and  _267
REMARK  108  A    between atoms: _267  and  _268
REMARK  109  A    between atoms: _267  and  _270
REMARK  110  A    between atoms: _270  and  _271
REMARK  111  A    between atoms: _274  and  _276
REMARK  112  A    between atoms: _276  and  _277
REMARK  113  A    between atoms: _279  and  _281
REMARK  114  A    between atoms: _281  and  _282
REMARK  115  A    between atoms: _281  and  _284
REMARK  116  A    between atoms: _284  and  _285
REMARK  117  A    between atoms: _285  and  _286
REMARK  118  A    between atoms: _286  and  _287
REMARK  119  A    between atoms: _296  and  _298
REMARK  120  A    between atoms: _298  and  _299
REMARK  121  A    between atoms: _298  and  _301
REMARK  122  A    between atoms: _301  and  _302
REMARK  123  A    between atoms: _307  and  _309
REMARK  124  A    between atoms: _309  and  _310
REMARK  125  A    between atoms: _309  and  _312
REMARK  126  A    between atoms: _312  and  _313
REMARK  127  A    between atoms: _313  and  _314
REMARK  128  A    between atoms: _314  and  _315
REMARK  129  A    between atoms: _324  and  _326
REMARK  130  A    between atoms: _326  and  _327
REMARK  131  A    between atoms: _326  and  _329
REMARK  132  A    between atoms: _329  and  _330
REMARK  133  A    between atoms: _333  and  _335
REMARK  134  A    between atoms: _335  and  _336
REMARK  135  A    between atoms: _335  and  _338
REMARK  136  A    between atoms: _338  and  _339
REMARK  137  A    between atoms: _342  and  _344
REMARK  138  A    between atoms: _344  and  _345
REMARK  139  A    between atoms: _344  and  _347
REMARK  140  A    between atoms: _347  and  _348
REMARK  141  A    between atoms: _351  and  _353
REMARK  142  A    between atoms: _353  and  _354
REMARK  143  A    between atoms: _353  and  _356
REMARK  144  A    between atoms: _356  and  _357
REMARK  145  A    between atoms: _360  and  _362
REMARK  146  A    between atoms: _362  and  _363
REMARK  147  A    between atoms: _365  and  _367
REMARK  148  A    between atoms: _367  and  _368
REMARK  149  A    between atoms: _371  and  _373
REMARK  150  A    between atoms: _373  and  _374
REMARK  151  A    between atoms: _373  and  _376
REMARK  152  A    between atoms: _376  and  _377
REMARK  153  A    between atoms: _380  and  _382
REMARK  154  A    between atoms: _382  and  _383
REMARK  155  A    between atoms: _382  and  _385
REMARK  156  A    between atoms: _385  and  _386
REMARK  157  A    between atoms: _389  and  _391
REMARK  158  A    between atoms: _391  and  _392
REMARK  159  A    between atoms: _391  and  _394
REMARK  160  A    between atoms: _394  and  _395
REMARK  161  A    between atoms: _398  and  _400
REMARK  162  A    between atoms: _400  and  _401
REMARK  163  A    between atoms: _400  and  _403
REMARK  164  A    between atoms: _406  and  _408
REMARK  165  A    between atoms: _408  and  _409
REMARK  166  A    between atoms: _408  and  _411
REMARK  167  A    between atoms: _411  and  _412
REMARK  168  A    between atoms: _415  and  _417
REMARK  169  A    between atoms: _417  and  _418
REMARK  170  A    between atoms: _417  and  _420
REMARK  171  A    between atoms: _420  and  _421
REMARK  172  A    between atoms: _421  and  _422
REMARK  173  A    between atoms: _422  and  _423
REMARK  174  A    between atoms: _423  and  _424
REMARK  175  A    between atoms: _428  and  _430
REMARK  176  A    between atoms: _430  and  _431
REMARK  177  A    between atoms: _430  and  _433
REMARK  178  A    between atoms: _433  and  _434
REMARK  179  A    between atoms: _434  and  _435
REMARK  180  A    between atoms: _437  and  _439
REMARK  181  A    between atoms: _439  and  _440
REMARK  182  A    between atoms: _439  and  _442
REMARK  183  A    between atoms: _442  and  _443
REMARK  184  A    between atoms: _446  and  _448
REMARK  185  A    between atoms: _448  and  _449
REMARK  186  A    between atoms: _451  and  _453
REMARK  187  A    between atoms: _453  and  _454
REMARK  188  A    between atoms: _456  and  _458
REMARK  189  A    between atoms: _458  and  _459
REMARK  190  A    between atoms: _458  and  _461
REMARK  191  A    between atoms: _461  and  _462
REMARK  192  A    between atoms: _465  and  _467
REMARK  193  A    between atoms: _467  and  _468
REMARK  194  A    between atoms: _470  and  _472
REMARK  195  A    between atoms: _472  and  _473
REMARK  196  A    between atoms: _475  and  _477
REMARK  197  A    between atoms: _477  and  _478
REMARK  198  A    between atoms: _477  and  _480
REMARK  199  A    between atoms: _480  and  _481
REMARK  200  A    between atoms: _487  and  _489
REMARK  201  A    between atoms: _489  and  _490
REMARK  202  A    between atoms: _489  and  _492
REMARK  203  A    between atoms: _492  and  _493
REMARK  204  A    between atoms: _496  and  _498
REMARK  205  A    between atoms: _498  and  _499
REMARK  206  A    between atoms: _498  and  _501
REMARK  207  A    between atoms: _504  and  _506
REMARK  208  A    between atoms: _506  and  _507
REMARK  209  A    between atoms: _506  and  _509
REMARK  210  A    between atoms: _509  and  _510
REMARK  211  A    between atoms: _513  and  _515
REMARK  212  A    between atoms: _515  and  _516
REMARK  213  A    between atoms: _515  and  _518
REMARK  214  A    between atoms: _518  and  _519
REMARK  215  A    between atoms: _523  and  _524
REMARK  216  A    between atoms: _529  and  _531
REMARK  217  A    between atoms: _531  and  _532
REMARK  218  A    between atoms: _531  and  _534
REMARK  219  A    between atoms: _537  and  _539
REMARK  220  A    between atoms: _539  and  _540
REMARK  221  A    between atoms: _539  and  _542
REMARK  222  A    between atoms: _542  and  _543
REMARK  223  A    between atoms: _548  and  _550
REMARK  224  A    between atoms: _550  and  _551
REMARK  225  A    between atoms: _550  and  _553
REMARK  226  A    between atoms: _553  and  _554
REMARK  227  A    between atoms: _557  and  _559
REMARK  228  A    between atoms: _559  and  _560
REMARK  229  A    between atoms: _559  and  _562
REMARK  230  A    between atoms: _562  and  _563
REMARK  231  A    between atoms: _566  and  _568
REMARK  232  A    between atoms: _568  and  _569
REMARK  233  A    between atoms: _571  and  _573
REMARK  234  A    between atoms: _573  and  _574
REMARK  235  A    between atoms: _573  and  _576
REMARK  236  A    between atoms: _576  and  _577
REMARK  237  A    between atoms: _577  and  _578
REMARK  238  A    between atoms: _578  and  _579
REMARK  239  A    between atoms: _588  and  _590
REMARK  240  A    between atoms: _590  and  _591
REMARK  241  A    between atoms: _590  and  _593
REMARK  242  A    between atoms: _593  and  _594
REMARK                            x       y       z     vdW  Elec       q    Type
REMARK                         _______ _______ _______ _____ _____    ______ ____
ROOT
ATOM      1  O   HOH     1      11.259  17.665   7.307  0.00  0.00    +0.000 OA
ENDROOT
TORSDOF 0
REMARK  Name = ../refined-set-2016/4zip/4zip_pocket.pdb
REMARK  242 active torsions:
REMARK  status: ('A' for Active; 'I' for Inactive)
REMARK    1  A    between atoms: _1  and  _3
REMARK    2  A    between atoms: _3  and  _4
REMARK    3  A    between atoms: _3  and  _6
REMARK    4  A    between atoms: _6  and  _7
REMARK    5  A    between atoms: _7  and  _8
REMARK    6  A    between atoms: _8  and  _9
REMARK    7  A    between atoms: _19  and  _20
REMARK    8  A    between atoms: _25  and  _27
REMARK    9  A    between atoms: _27  and  _28
REMARK   10  A    between atoms: _27  and  _30
REMARK   11  A    between atoms: _30  and  _31
REMARK   12  A    between atoms: _34  and  _36
REMARK   13  A    between atoms: _36  and  _37
REMARK   14  A    between atoms: _36  and  _39
REMARK   15  A    between atoms: _39  and  _40
REMARK   16  A    between atoms: _43  and  _45
REMARK   17  A    between atoms: _45  and  _46
REMARK   18  A    between atoms: _45  and  _48
REMARK   19  A    between atoms: _48  and  _49
REMARK   20  A    between atoms: _52  and  _54
REMARK   21  A    between atoms: _54  and  _55
REMARK   22  A    between atoms: _54  and  _57
REMARK   23  A    between atoms: _57  and  _58
REMARK   24  A    between atoms: _61  and  _63
REMARK   25  A    between atoms: _63  and  _64
REMARK   26  A    between atoms: _63  and  _66
REMARK   27  A    between atoms: _66  and  _67
REMARK   28  A    between atoms: _70  and  _72
REMARK   29  A    between atoms: _72  and  _73
REMARK   30  A    between atoms: _75  and  _77
REMARK   31  A    between atoms: _77  and  _78
REMARK   32  A    between atoms: _81  and  _83
REMARK   33  A    between atoms: _83  and  _84
REMARK   34  A    between atoms: _83  and  _86
REMARK   35  A    between atoms: _86  and  _87
REMARK   36  A    between atoms: _90  and  _92
REMARK   37  A    between atoms: _92  and  _93
REMARK   38  A    between atoms: _92  and  _95
REMARK   39  A    between atoms: _95  and  _96
REMARK   40  A    between atoms: _99  and  _101
REMARK   41  A    between atoms: _101  and  _102
REMARK   42  A    between atoms: _101  and  _104
REMARK   43  A    between atoms: _104  and  _105
REMARK   44  A    between atoms: _108  and  _110
REMARK   45  A    between atoms: _110  and  _111
REMARK   46  A    between atoms: _110  and  _113
REMARK   47  A    between atoms: _116  and  _118
REMARK   48  A    between atoms: _118  and  _119
REMARK   49  A    between atoms: _118  and  _121
REMARK   50  A    between atoms: _121  and  _122
REMARK   51  A    between atoms: _122  and  _123
REMARK   52  A    between atoms: _123  and  _124
REMARK   53  A    between atoms: _124  and  _125
REMARK   54  A    between atoms: _129  and  _131
REMARK   55  A    between atoms: _131  and  _132
REMARK   56  A    between atoms: _131  and  _134
REMARK   57  A    between atoms: _134  and  _135
REMARK   58  A    between atoms: _135  and  _136
REMARK   59  A    between atoms: _138  and  _140
REMARK   60  A    between atoms: _140  and  _141
REMARK   61  A    between atoms: _140  and  _143
REMARK   62  A    between atoms: _143  and  _144
REMARK   63  A    between atoms: _147  and  _149
REMARK   64  A    between atoms: _149  and  _150
REMARK   65  A    between atoms: _152  and  _154
REMARK   66  A    between atoms: _154  and  _155
REMARK   67  A    between atoms: _157  and  _159
REMARK   68  A    between atoms: _159  and  _160
REMARK   69  A    between atoms: _159  and  _162
REMARK   70  A    between atoms: _162  and  _163
REMARK   71  A    between atoms: _166  and  _168
REMARK   72  A    between atoms: _168  and  _169
REMARK   73  A    between atoms: _171  and  _173
REMARK   74  A    between atoms: _173  and  _174
REMARK   75  A    between atoms: _176  and  _178
REMARK   76  A    between atoms: _178  and  _179
REMARK   77  A    between atoms: _178  and  _181
REMARK   78  A    between atoms: _181  and  _182
REMARK   79  A    between atoms: _188  and  _190
REMARK   80  A    between atoms: _190  and  _191
REMARK   81  A    between atoms: _190  and  _193
REMARK   82  A    between atoms: _193  and  _194
REMARK   83  A    between atoms: _197  and  _199
REMARK   84  A    between atoms: _199  and  _200
REMARK   85  A    between atoms: _199  and  _202
REMARK   86  A    between atoms: _205  and  _207
REMARK   87  A    between atoms: _207  and  _208
REMARK   88  A    between atoms: _207  and  _210
REMARK   89  A    between atoms: _210  and  _211
REMARK   90  A    between atoms: _215  and  _216
REMARK   91  A    between atoms: _221  and  _223
REMARK   92  A    between atoms: _223  and  _224
REMARK   93  A    between atoms: _223  and  _226
REMARK   94  A    between atoms: _226  and  _227
REMARK   95  A    between atoms: _231  and  _232
REMARK   96  A    between atoms: _237  and  _239
REMARK   97  A    between atoms: _239  and  _240
REMARK   98  A    between atoms: _239  and  _242
REMARK   99  A    between atoms: _245  and  _247
REMARK  100  A    between atoms: _247  and  _248
REMARK  101  A    between atoms: _247  and  _250
REMARK  102  A    between atoms: _250  and  _251
REMARK  103  A    between atoms: _256  and  _258
REMARK  104  A    between atoms: _258  and  _259
REMARK  105  A    between atoms: _258  and  _261
REMARK  106  A    between atoms: _261  and  _262
REMARK  107  A    between atoms: _265  and  _267
REMARK  108  A    between atoms: _267  and  _268
REMARK  109  A    between atoms: _267  and  _270
REMARK  110  A    between atoms: _270  and  _271
REMARK  111  A    between atoms: _274  and  _276
REMARK  112  A    between atoms: _276  and  _277
REMARK  113  A    between atoms: _279  and  _281
REMARK  114  A    between atoms: _281  and  _282
REMARK  115  A    between atoms: _281  and  _284
REMARK  116  A    between atoms: _284  and  _285
REMARK  117  A    between atoms: _285  and  _286
REMARK  118  A    between atoms: _286  and  _287
REMARK  119  A    between atoms: _296  and  _298
REMARK  120  A    between atoms: _298  and  _299
REMARK  121  A    between atoms: _298  and  _301
REMARK  122  A    between atoms: _301  and  _302
REMARK  123  A    between atoms: _307  and  _309
REMARK  124  A    between atoms: _309  and  _310
REMARK  125  A    between atoms: _309  and  _312
REMARK  126  A    between atoms: _312  and  _313
REMARK  127  A    between atoms: _313  and  _314
REMARK  128  A    between atoms: _314  and  _315
REMARK  129  A    between atoms: _324  and  _326
REMARK  130  A    between atoms: _326  and  _327
REMARK  131  A    between atoms: _326  and  _329
REMARK  132  A    between atoms: _329  and  _330
REMARK  133  A    between atoms: _333  and  _335
REMARK  134  A    between atoms: _335  and  _336
REMARK  135  A    between atoms: _335  and  _338
REMARK  136  A    between atoms: _338  and  _339
REMARK  137  A    between atoms: _342  and  _344
REMARK  138  A    between atoms: _344  and  _345
REMARK  139  A    between atoms: _344  and  _347
REMARK  140  A    between atoms: _347  and  _348
REMARK  141  A    between atoms: _351  and  _353
REMARK  142  A    between atoms: _353  and  _354
REMARK  143  A    between atoms: _353  and  _356
REMARK  144  A    between atoms: _356  and  _357
REMARK  145  A    between atoms: _360  and  _362
REMARK  146  A    between atoms: _362  and  _363
REMARK  147  A    between atoms: _365  and  _367
REMARK  148  A    between atoms: _367  and  _368
REMARK  149  A    between atoms: _371  and  _373
REMARK  150  A    between atoms: _373  and  _374
REMARK  151  A    between atoms: _373  and  _376
REMARK  152  A    between atoms: _376  and  _377
REMARK  153  A    between atoms: _380  and  _382
REMARK  154  A    between atoms: _382  and  _383
REMARK  155  A    between atoms: _382  and  _385
REMARK  156  A    between atoms: _385  and  _386
REMARK  157  A    between atoms: _389  and  _391
REMARK  158  A    between atoms: _391  and  _392
REMARK  159  A    between atoms: _391  and  _394
REMARK  160  A    between atoms: _394  and  _395
REMARK  161  A    between atoms: _398  and  _400
REMARK  162  A    between atoms: _400  and  _401
REMARK  163  A    between atoms: _400  and  _403
REMARK  164  A    between atoms: _406  and  _408
REMARK  165  A    between atoms: _408  and  _409
REMARK  166  A    between atoms: _408  and  _411
REMARK  167  A    between atoms: _411  and  _412
REMARK  168  A    between atoms: _415  and  _417
REMARK  169  A    between atoms: _417  and  _418
REMARK  170  A    between atoms: _417  and  _420
REMARK  171  A    between atoms: _420  and  _421
REMARK  172  A    between atoms: _421  and  _422
REMARK  173  A    between atoms: _422  and  _423
REMARK  174  A    between atoms: _423  and  _424
REMARK  175  A    between atoms: _428  and  _430
REMARK  176  A    between atoms: _430  and  _431
REMARK  177  A    between atoms: _430  and  _433
REMARK  178  A    between atoms: _433  and  _434
REMARK  179  A    between atoms: _434  and  _435
REMARK  180  A    between atoms: _437  and  _439
REMARK  181  A    between atoms: _439  and  _440
REMARK  182  A    between atoms: _439  and  _442
REMARK  183  A    between atoms: _442  and  _443
REMARK  184  A    between atoms: _446  and  _448
REMARK  185  A    between atoms: _448  and  _449
REMARK  186  A    between atoms: _451  and  _453
REMARK  187  A    between atoms: _453  and  _454
REMARK  188  A    between atoms: _456  and  _458
REMARK  189  A    between atoms: _458  and  _459
REMARK  190  A    between atoms: _458  and  _461
REMARK  191  A    between atoms: _461  and  _462
REMARK  192  A    between atoms: _465  and  _467
REMARK  193  A    between atoms: _467  and  _468
REMARK  194  A    between atoms: _470  and  _472
REMARK  195  A    between atoms: _472  and  _473
REMARK  196  A    between atoms: _475  and  _477
REMARK  197  A    between atoms: _477  and  _478
REMARK  198  A    between atoms: _477  and  _480
REMARK  199  A    between atoms: _480  and  _481
REMARK  200  A    between atoms: _487  and  _489
REMARK  201  A    between atoms: _489  and  _490
REMARK  202  A    between atoms: _489  and  _492
REMARK  203  A    between atoms: _492  and  _493
REMARK  204  A    between atoms: _496  and  _498
REMARK  205  A    between atoms: _498  and  _499
REMARK  206  A    between atoms: _498  and  _501
REMARK  207  A    between atoms: _504  and  _506
REMARK  208  A    between atoms: _506  and  _507
REMARK  209  A    between atoms: _506  and  _509
REMARK  210  A    between atoms: _509  and  _510
REMARK  211  A    between atoms: _513  and  _515
REMARK  212  A    between atoms: _515  and  _516
REMARK  213  A    between atoms: _515  and  _518
REMARK  214  A    between atoms: _518  and  _519
REMARK  215  A    between atoms: _523  and  _524
REMARK  216  A    between atoms: _529  and  _531
REMARK  217  A    between atoms: _531  and  _532
REMARK  218  A    between atoms: _531  and  _534
REMARK  219  A    between atoms: _537  and  _539
REMARK  220  A    between atoms: _539  and  _540
REMARK  221  A    between atoms: _539  and  _542
REMARK  222  A    between atoms: _542  and  _543
REMARK  223  A    between atoms: _548  and  _550
REMARK  224  A    between atoms: _550  and  _551
REMARK  225  A    between atoms: _550  and  _553
REMARK  226  A    between atoms: _553  and  _554
REMARK  227  A    between atoms: _557  and  _559
REMARK  228  A    between atoms: _559  and  _560
REMARK  229  A    between atoms: _559  and  _562
REMARK  230  A    between atoms: _562  and  _563
REMARK  231  A    between atoms: _566  and  _568
REMARK  232  A    between atoms: _568  and  _569
REMARK  233  A    between atoms: _571  and  _573
REMARK  234  A    between atoms: _573  and  _574
REMARK  235  A    between atoms: _573  and  _576
REMARK  236  A    between atoms: _576  and  _577
REMARK  237  A    between atoms: _577  and  _578
REMARK  238  A    between atoms: _578  and  _579
REMARK  239  A    between atoms: _588  and  _590
REMARK  240  A    between atoms: _590  and  _591
REMARK  241  A    between atoms: _590  and  _593
REMARK  242  A    between atoms: _593  and  _594
REMARK                            x       y       z     vdW  Elec       q    Type
REMARK                         _______ _______ _______ _____ _____    ______ ____
ROOT
ATOM      1  O   HOH     1      20.630  33.882  10.680  0.00  0.00    +0.000 OA
ENDROOT
TORSDOF 0
REMARK  Name = ../refined-set-2016/4zip/4zip_pocket.pdb
REMARK  242 active torsions:
REMARK  status: ('A' for Active; 'I' for Inactive)
REMARK    1  A    between atoms: _1  and  _3
REMARK    2  A    between atoms: _3  and  _4
REMARK    3  A    between atoms: _3  and  _6
REMARK    4  A    between atoms: _6  and  _7
REMARK    5  A    between atoms: _7  and  _8
REMARK    6  A    between atoms: _8  and  _9
REMARK    7  A    between atoms: _19  and  _20
REMARK    8  A    between atoms: _25  and  _27
REMARK    9  A    between atoms: _27  and  _28
REMARK   10  A    between atoms: _27  and  _30
REMARK   11  A    between atoms: _30  and  _31
REMARK   12  A    between atoms: _34  and  _36
REMARK   13  A    between atoms: _36  and  _37
REMARK   14  A    between atoms: _36  and  _39
REMARK   15  A    between atoms: _39  and  _40
REMARK   16  A    between atoms: _43  and  _45
REMARK   17  A    between atoms: _45  and  _46
REMARK   18  A    between atoms: _45  and  _48
REMARK   19  A    between atoms: _48  and  _49
REMARK   20  A    between atoms: _52  and  _54
REMARK   21  A    between atoms: _54  and  _55
REMARK   22  A    between atoms: _54  and  _57
REMARK   23  A    between atoms: _57  and  _58
REMARK   24  A    between atoms: _61  and  _63
REMARK   25  A    between atoms: _63  and  _64
REMARK   26  A    between atoms: _63  and  _66
REMARK   27  A    between atoms: _66  and  _67
REMARK   28  A    between atoms: _70  and  _72
REMARK   29  A    between atoms: _72  and  _73
REMARK   30  A    between atoms: _75  and  _77
REMARK   31  A    between atoms: _77  and  _78
REMARK   32  A    between atoms: _81  and  _83
REMARK   33  A    between atoms: _83  and  _84
REMARK   34  A    between atoms: _83  and  _86
REMARK   35  A    between atoms: _86  and  _87
REMARK   36  A    between atoms: _90  and  _92
REMARK   37  A    between atoms: _92  and  _93
REMARK   38  A    between atoms: _92  and  _95
REMARK   39  A    between atoms: _95  and  _96
REMARK   40  A    between atoms: _99  and  _101
REMARK   41  A    between atoms: _101  and  _102
REMARK   42  A    between atoms: _101  and  _104
REMARK   43  A    between atoms: _104  and  _105
REMARK   44  A    between atoms: _108  and  _110
REMARK   45  A    between atoms: _110  and  _111
REMARK   46  A    between atoms: _110  and  _113
REMARK   47  A    between atoms: _116  and  _118
REMARK   48  A    between atoms: _118  and  _119
REMARK   49  A    between atoms: _118  and  _121
REMARK   50  A    between atoms: _121  and  _122
REMARK   51  A    between atoms: _122  and  _123
REMARK   52  A    between atoms: _123  and  _124
REMARK   53  A    between atoms: _124  and  _125
REMARK   54  A    between atoms: _129  and  _131
REMARK   55  A    between atoms: _131  and  _132
REMARK   56  A    between atoms: _131  and  _134
REMARK   57  A    between atoms: _134  and  _135
REMARK   58  A    between atoms: _135  and  _136
REMARK   59  A    between atoms: _138  and  _140
REMARK   60  A    between atoms: _140  and  _141
REMARK   61  A    between atoms: _140  and  _143
REMARK   62  A    between atoms: _143  and  _144
REMARK   63  A    between atoms: _147  and  _149
REMARK   64  A    between atoms: _149  and  _150
REMARK   65  A    between atoms: _152  and  _154
REMARK   66  A    between atoms: _154  and  _155
REMARK   67  A    between atoms: _157  and  _159
REMARK   68  A    between atoms: _159  and  _160
REMARK   69  A    between atoms: _159  and  _162
REMARK   70  A    between atoms: _162  and  _163
REMARK   71  A    between atoms: _166  and  _168
REMARK   72  A    between atoms: _168  and  _169
REMARK   73  A    between atoms: _171  and  _173
REMARK   74  A    between atoms: _173  and  _174
REMARK   75  A    between atoms: _176  and  _178
REMARK   76  A    between atoms: _178  and  _179
REMARK   77  A    between atoms: _178  and  _181
REMARK   78  A    between atoms: _181  and  _182
REMARK   79  A    between atoms: _188  and  _190
REMARK   80  A    between atoms: _190  and  _191
REMARK   81  A    between atoms: _190  and  _193
REMARK   82  A    between atoms: _193  and  _194
REMARK   83  A    between atoms: _197  and  _199
REMARK   84  A    between atoms: _199  and  _200
REMARK   85  A    between atoms: _199  and  _202
REMARK   86  A    between atoms: _205  and  _207
REMARK   87  A    between atoms: _207  and  _208
REMARK   88  A    between atoms: _207  and  _210
REMARK   89  A    between atoms: _210  and  _211
REMARK   90  A    between atoms: _215  and  _216
REMARK   91  A    between atoms: _221  and  _223
REMARK   92  A    between atoms: _223  and  _224
REMARK   93  A    between atoms: _223  and  _226
REMARK   94  A    between atoms: _226  and  _227
REMARK   95  A    between atoms: _231  and  _232
REMARK   96  A    between atoms: _237  and  _239
REMARK   97  A    between atoms: _239  and  _240
REMARK   98  A    between atoms: _239  and  _242
REMARK   99  A    between atoms: _245  and  _247
REMARK  100  A    between atoms: _247  and  _248
REMARK  101  A    between atoms: _247  and  _250
REMARK  102  A    between atoms: _250  and  _251
REMARK  103  A    between atoms: _256  and  _258
REMARK  104  A    between atoms: _258  and  _259
REMARK  105  A    between atoms: _258  and  _261
REMARK  106  A    between atoms: _261  and  _262
REMARK  107  A    between atoms: _265  and  _267
REMARK  108  A    between atoms: _267  and  _268
REMARK  109  A    between atoms: _267  and  _270
REMARK  110  A    between atoms: _270  and  _271
REMARK  111  A    between atoms: _274  and  _276
REMARK  112  A    between atoms: _276  and  _277
REMARK  113  A    between atoms: _279  and  _281
REMARK  114  A    between atoms: _281  and  _282
REMARK  115  A    between atoms: _281  and  _284
REMARK  116  A    between atoms: _284  and  _285
REMARK  117  A    between atoms: _285  and  _286
REMARK  118  A    between atoms: _286  and  _287
REMARK  119  A    between atoms: _296  and  _298
REMARK  120  A    between atoms: _298  and  _299
REMARK  121  A    between atoms: _298  and  _301
REMARK  122  A    between atoms: _301  and  _302
REMARK  123  A    between atoms: _307  and  _309
REMARK  124  A    between atoms: _309  and  _310
REMARK  125  A    between atoms: _309  and  _312
REMARK  126  A    between atoms: _312  and  _313
REMARK  127  A    between atoms: _313  and  _314
REMARK  128  A    between atoms: _314  and  _315
REMARK  129  A    between atoms: _324  and  _326
REMARK  130  A    between atoms: _326  and  _327
REMARK  131  A    between atoms: _326  and  _329
REMARK  132  A    between atoms: _329  and  _330
REMARK  133  A    between atoms: _333  and  _335
REMARK  134  A    between atoms: _335  and  _336
REMARK  135  A    between atoms: _335  and  _338
REMARK  136  A    between atoms: _338  and  _339
REMARK  137  A    between atoms: _342  and  _344
REMARK  138  A    between atoms: _344  and  _345
REMARK  139  A    between atoms: _344  and  _347
REMARK  140  A    between atoms: _347  and  _348
REMARK  141  A    between atoms: _351  and  _353
REMARK  142  A    between atoms: _353  and  _354
REMARK  143  A    between atoms: _353  and  _356
REMARK  144  A    between atoms: _356  and  _357
REMARK  145  A    between atoms: _360  and  _362
REMARK  146  A    between atoms: _362  and  _363
REMARK  147  A    between atoms: _365  and  _367
REMARK  148  A    between atoms: _367  and  _368
REMARK  149  A    between atoms: _371  and  _373
REMARK  150  A    between atoms: _373  and  _374
REMARK  151  A    between atoms: _373  and  _376
REMARK  152  A    between atoms: _376  and  _377
REMARK  153  A    between atoms: _380  and  _382
REMARK  154  A    between atoms: _382  and  _383
REMARK  155  A    between atoms: _382  and  _385
REMARK  156  A    between atoms: _385  and  _386
REMARK  157  A    between atoms: _389  and  _391
REMARK  158  A    between atoms: _391  and  _392
REMARK  159  A    between atoms: _391  and  _394
REMARK  160  A    between atoms: _394  and  _395
REMARK  161  A    between atoms: _398  and  _400
REMARK  162  A    between atoms: _400  and  _401
REMARK  163  A    between atoms: _400  and  _403
REMARK  164  A    between atoms: _406  and  _408
REMARK  165  A    between atoms: _408  and  _409
REMARK  166  A    between atoms: _408  and  _411
REMARK  167  A    between atoms: _411  and  _412
REMARK  168  A    between atoms: _415  and  _417
REMARK  169  A    between atoms: _417  and  _418
REMARK  170  A    between atoms: _417  and  _420
REMARK  171  A    between atoms: _420  and  _421
REMARK  172  A    between atoms: _421  and  _422
REMARK  173  A    between atoms: _422  and  _423
REMARK  174  A    between atoms: _423  and  _424
REMARK  175  A    between atoms: _428  and  _430
REMARK  176  A    between atoms: _430  and  _431
REMARK  177  A    between atoms: _430  and  _433
REMARK  178  A    between atoms: _433  and  _434
REMARK  179  A    between atoms: _434  and  _435
REMARK  180  A    between atoms: _437  and  _439
REMARK  181  A    between atoms: _439  and  _440
REMARK  182  A    between atoms: _439  and  _442
REMARK  183  A    between atoms: _442  and  _443
REMARK  184  A    between atoms: _446  and  _448
REMARK  185  A    between atoms: _448  and  _449
REMARK  186  A    between atoms: _451  and  _453
REMARK  187  A    between atoms: _453  and  _454
REMARK  188  A    between atoms: _456  and  _458
REMARK  189  A    between atoms: _458  and  _459
REMARK  190  A    between atoms: _458  and  _461
REMARK  191  A    between atoms: _461  and  _462
REMARK  192  A    between atoms: _465  and  _467
REMARK  193  A    between atoms: _467  and  _468
REMARK  194  A    between atoms: _470  and  _472
REMARK  195  A    between atoms: _472  and  _473
REMARK  196  A    between atoms: _475  and  _477
REMARK  197  A    between atoms: _477  and  _478
REMARK  198  A    between atoms: _477  and  _480
REMARK  199  A    between atoms: _480  and  _481
REMARK  200  A    between atoms: _487  and  _489
REMARK  201  A    between atoms: _489  and  _490
REMARK  202  A    between atoms: _489  and  _492
REMARK  203  A    between atoms: _492  and  _493
REMARK  204  A    between atoms: _496  and  _498
REMARK  205  A    between atoms: _498  and  _499
REMARK  206  A    between atoms: _498  and  _501
REMARK  207  A    between atoms: _504  and  _506
REMARK  208  A    between atoms: _506  and  _507
REMARK  209  A    between atoms: _506  and  _509
REMARK  210  A    between atoms: _509  and  _510
REMARK  211  A    between atoms: _513  and  _515
REMARK  212  A    between atoms: _515  and  _516
REMARK  213  A    between atoms: _515  and  _518
REMARK  214  A    between atoms: _518  and  _519
REMARK  215  A    between atoms: _523  and  _524
REMARK  216  A    between atoms: _529  and  _531
REMARK  217  A    between atoms: _531  and  _532
REMARK  218  A    between atoms: _531  and  _534
REMARK  219  A    between atoms: _537  and  _539
REMARK  220  A    between atoms: _539  and  _540
REMARK  221  A    between atoms: _539  and  _542
REMARK  222  A    between atoms: _542  and  _543
REMARK  223  A    between atoms: _548  and  _550
REMARK  224  A    between atoms: _550  and  _551
REMARK  225  A    between atoms: _550  and  _553
REMARK  226  A    between atoms: _553  and  _554
REMARK  227  A    between atoms: _557  and  _559
REMARK  228  A    between atoms: _559  and  _560
REMARK  229  A    between atoms: _559  and  _562
REMARK  230  A    between atoms: _562  and  _563
REMARK  231  A    between atoms: _566  and  _568
REMARK  232  A    between atoms: _568  and  _569
REMARK  233  A    between atoms: _571  and  _573
REMARK  234  A    between atoms: _573  and  _574
REMARK  235  A    between atoms: _573  and  _576
REMARK  236  A    between atoms: _576  and  _577
REMARK  237  A    between atoms: _577  and  _578
REMARK  238  A    between atoms: _578  and  _579
REMARK  239  A    between atoms: _588  and  _590
REMARK  240  A    between atoms: _590  and  _591
REMARK  241  A    between atoms: _590  and  _593
REMARK  242  A    between atoms: _593  and  _594
REMARK                            x       y       z     vdW  Elec       q    Type
REMARK                         _______ _______ _______ _____ _____    ______ ____
ROOT
ATOM      1  O   HOH     1      25.282  30.688  17.163  0.00  0.00    +0.000 OA
ENDROOT
TORSDOF 0
REMARK  Name = ../refined-set-2016/4zip/4zip_pocket.pdb
REMARK  242 active torsions:
REMARK  status: ('A' for Active; 'I' for Inactive)
REMARK    1  A    between atoms: _1  and  _3
REMARK    2  A    between atoms: _3  and  _4
REMARK    3  A    between atoms: _3  and  _6
REMARK    4  A    between atoms: _6  and  _7
REMARK    5  A    between atoms: _7  and  _8
REMARK    6  A    between atoms: _8  and  _9
REMARK    7  A    between atoms: _19  and  _20
REMARK    8  A    between atoms: _25  and  _27
REMARK    9  A    between atoms: _27  and  _28
REMARK   10  A    between atoms: _27  and  _30
REMARK   11  A    between atoms: _30  and  _31
REMARK   12  A    between atoms: _34  and  _36
REMARK   13  A    between atoms: _36  and  _37
REMARK   14  A    between atoms: _36  and  _39
REMARK   15  A    between atoms: _39  and  _40
REMARK   16  A    between atoms: _43  and  _45
REMARK   17  A    between atoms: _45  and  _46
REMARK   18  A    between atoms: _45  and  _48
REMARK   19  A    between atoms: _48  and  _49
REMARK   20  A    between atoms: _52  and  _54
REMARK   21  A    between atoms: _54  and  _55
REMARK   22  A    between atoms: _54  and  _57
REMARK   23  A    between atoms: _57  and  _58
REMARK   24  A    between atoms: _61  and  _63
REMARK   25  A    between atoms: _63  and  _64
REMARK   26  A    between atoms: _63  and  _66
REMARK   27  A    between atoms: _66  and  _67
REMARK   28  A    between atoms: _70  and  _72
REMARK   29  A    between atoms: _72  and  _73
REMARK   30  A    between atoms: _75  and  _77
REMARK   31  A    between atoms: _77  and  _78
REMARK   32  A    between atoms: _81  and  _83
REMARK   33  A    between atoms: _83  and  _84
REMARK   34  A    between atoms: _83  and  _86
REMARK   35  A    between atoms: _86  and  _87
REMARK   36  A    between atoms: _90  and  _92
REMARK   37  A    between atoms: _92  and  _93
REMARK   38  A    between atoms: _92  and  _95
REMARK   39  A    between atoms: _95  and  _96
REMARK   40  A    between atoms: _99  and  _101
REMARK   41  A    between atoms: _101  and  _102
REMARK   42  A    between atoms: _101  and  _104
REMARK   43  A    between atoms: _104  and  _105
REMARK   44  A    between atoms: _108  and  _110
REMARK   45  A    between atoms: _110  and  _111
REMARK   46  A    between atoms: _110  and  _113
REMARK   47  A    between atoms: _116  and  _118
REMARK   48  A    between atoms: _118  and  _119
REMARK   49  A    between atoms: _118  and  _121
REMARK   50  A    between atoms: _121  and  _122
REMARK   51  A    between atoms: _122  and  _123
REMARK   52  A    between atoms: _123  and  _124
REMARK   53  A    between atoms: _124  and  _125
REMARK   54  A    between atoms: _129  and  _131
REMARK   55  A    between atoms: _131  and  _132
REMARK   56  A    between atoms: _131  and  _134
REMARK   57  A    between atoms: _134  and  _135
REMARK   58  A    between atoms: _135  and  _136
REMARK   59  A    between atoms: _138  and  _140
REMARK   60  A    between atoms: _140  and  _141
REMARK   61  A    between atoms: _140  and  _143
REMARK   62  A    between atoms: _143  and  _144
REMARK   63  A    between atoms: _147  and  _149
REMARK   64  A    between atoms: _149  and  _150
REMARK   65  A    between atoms: _152  and  _154
REMARK   66  A    between atoms: _154  and  _155
REMARK   67  A    between atoms: _157  and  _159
REMARK   68  A    between atoms: _159  and  _160
REMARK   69  A    between atoms: _159  and  _162
REMARK   70  A    between atoms: _162  and  _163
REMARK   71  A    between atoms: _166  and  _168
REMARK   72  A    between atoms: _168  and  _169
REMARK   73  A    between atoms: _171  and  _173
REMARK   74  A    between atoms: _173  and  _174
REMARK   75  A    between atoms: _176  and  _178
REMARK   76  A    between atoms: _178  and  _179
REMARK   77  A    between atoms: _178  and  _181
REMARK   78  A    between atoms: _181  and  _182
REMARK   79  A    between atoms: _188  and  _190
REMARK   80  A    between atoms: _190  and  _191
REMARK   81  A    between atoms: _190  and  _193
REMARK   82  A    between atoms: _193  and  _194
REMARK   83  A    between atoms: _197  and  _199
REMARK   84  A    between atoms: _199  and  _200
REMARK   85  A    between atoms: _199  and  _202
REMARK   86  A    between atoms: _205  and  _207
REMARK   87  A    between atoms: _207  and  _208
REMARK   88  A    between atoms: _207  and  _210
REMARK   89  A    between atoms: _210  and  _211
REMARK   90  A    between atoms: _215  and  _216
REMARK   91  A    between atoms: _221  and  _223
REMARK   92  A    between atoms: _223  and  _224
REMARK   93  A    between atoms: _223  and  _226
REMARK   94  A    between atoms: _226  and  _227
REMARK   95  A    between atoms: _231  and  _232
REMARK   96  A    between atoms: _237  and  _239
REMARK   97  A    between atoms: _239  and  _240
REMARK   98  A    between atoms: _239  and  _242
REMARK   99  A    between atoms: _245  and  _247
REMARK  100  A    between atoms: _247  and  _248
REMARK  101  A    between atoms: _247  and  _250
REMARK  102  A    between atoms: _250  and  _251
REMARK  103  A    between atoms: _256  and  _258
REMARK  104  A    between atoms: _258  and  _259
REMARK  105  A    between atoms: _258  and  _261
REMARK  106  A    between atoms: _261  and  _262
REMARK  107  A    between atoms: _265  and  _267
REMARK  108  A    between atoms: _267  and  _268
REMARK  109  A    between atoms: _267  and  _270
REMARK  110  A    between atoms: _270  and  _271
REMARK  111  A    between atoms: _274  and  _276
REMARK  112  A    between atoms: _276  and  _277
REMARK  113  A    between atoms: _279  and  _281
REMARK  114  A    between atoms: _281  and  _282
REMARK  115  A    between atoms: _281  and  _284
REMARK  116  A    between atoms: _284  and  _285
REMARK  117  A    between atoms: _285  and  _286
REMARK  118  A    between atoms: _286  and  _287
REMARK  119  A    between atoms: _296  and  _298
REMARK  120  A    between atoms: _298  and  _299
REMARK  121  A    between atoms: _298  and  _301
REMARK  122  A    between atoms: _301  and  _302
REMARK  123  A    between atoms: _307  and  _309
REMARK  124  A    between atoms: _309  and  _310
REMARK  125  A    between atoms: _309  and  _312
REMARK  126  A    between atoms: _312  and  _313
REMARK  127  A    between atoms: _313  and  _314
REMARK  128  A    between atoms: _314  and  _315
REMARK  129  A    between atoms: _324  and  _326
REMARK  130  A    between atoms: _326  and  _327
REMARK  131  A    between atoms: _326  and  _329
REMARK  132  A    between atoms: _329  and  _330
REMARK  133  A    between atoms: _333  and  _335
REMARK  134  A    between atoms: _335  and  _336
REMARK  135  A    between atoms: _335  and  _338
REMARK  136  A    between atoms: _338  and  _339
REMARK  137  A    between atoms: _342  and  _344
REMARK  138  A    between atoms: _344  and  _345
REMARK  139  A    between atoms: _344  and  _347
REMARK  140  A    between atoms: _347  and  _348
REMARK  141  A    between atoms: _351  and  _353
REMARK  142  A    between atoms: _353  and  _354
REMARK  143  A    between atoms: _353  and  _356
REMARK  144  A    between atoms: _356  and  _357
REMARK  145  A    between atoms: _360  and  _362
REMARK  146  A    between atoms: _362  and  _363
REMARK  147  A    between atoms: _365  and  _367
REMARK  148  A    between atoms: _367  and  _368
REMARK  149  A    between atoms: _371  and  _373
REMARK  150  A    between atoms: _373  and  _374
REMARK  151  A    between atoms: _373  and  _376
REMARK  152  A    between atoms: _376  and  _377
REMARK  153  A    between atoms: _380  and  _382
REMARK  154  A    between atoms: _382  and  _383
REMARK  155  A    between atoms: _382  and  _385
REMARK  156  A    between atoms: _385  and  _386
REMARK  157  A    between atoms: _389  and  _391
REMARK  158  A    between atoms: _391  and  _392
REMARK  159  A    between atoms: _391  and  _394
REMARK  160  A    between atoms: _394  and  _395
REMARK  161  A    between atoms: _398  and  _400
REMARK  162  A    between atoms: _400  and  _401
REMARK  163  A    between atoms: _400  and  _403
REMARK  164  A    between atoms: _406  and  _408
REMARK  165  A    between atoms: _408  and  _409
REMARK  166  A    between atoms: _408  and  _411
REMARK  167  A    between atoms: _411  and  _412
REMARK  168  A    between atoms: _415  and  _417
REMARK  169  A    between atoms: _417  and  _418
REMARK  170  A    between atoms: _417  and  _420
REMARK  171  A    between atoms: _420  and  _421
REMARK  172  A    between atoms: _421  and  _422
REMARK  173  A    between atoms: _422  and  _423
REMARK  174  A    between atoms: _423  and  _424
REMARK  175  A    between atoms: _428  and  _430
REMARK  176  A    between atoms: _430  and  _431
REMARK  177  A    between atoms: _430  and  _433
REMARK  178  A    between atoms: _433  and  _434
REMARK  179  A    between atoms: _434  and  _435
REMARK  180  A    between atoms: _437  and  _439
REMARK  181  A    between atoms: _439  and  _440
REMARK  182  A    between atoms: _439  and  _442
REMARK  183  A    between atoms: _442  and  _443
REMARK  184  A    between atoms: _446  and  _448
REMARK  185  A    between atoms: _448  and  _449
REMARK  186  A    between atoms: _451  and  _453
REMARK  187  A    between atoms: _453  and  _454
REMARK  188  A    between atoms: _456  and  _458
REMARK  189  A    between atoms: _458  and  _459
REMARK  190  A    between atoms: _458  and  _461
REMARK  191  A    between atoms: _461  and  _462
REMARK  192  A    between atoms: _465  and  _467
REMARK  193  A    between atoms: _467  and  _468
REMARK  194  A    between atoms: _470  and  _472
REMARK  195  A    between atoms: _472  and  _473
REMARK  196  A    between atoms: _475  and  _477
REMARK  197  A    between atoms: _477  and  _478
REMARK  198  A    between atoms: _477  and  _480
REMARK  199  A    between atoms: _480  and  _481
REMARK  200  A    between atoms: _487  and  _489
REMARK  201  A    between atoms: _489  and  _490
REMARK  202  A    between atoms: _489  and  _492
REMARK  203  A    between atoms: _492  and  _493
REMARK  204  A    between atoms: _496  and  _498
REMARK  205  A    between atoms: _498  and  _499
REMARK  206  A    between atoms: _498  and  _501
REMARK  207  A    between atoms: _504  and  _506
REMARK  208  A    between atoms: _506  and  _507
REMARK  209  A    between atoms: _506  and  _509
REMARK  210  A    between atoms: _509  and  _510
REMARK  211  A    between atoms: _513  and  _515
REMARK  212  A    between atoms: _515  and  _516
REMARK  213  A    between atoms: _515  and  _518
REMARK  214  A    between atoms: _518  and  _519
REMARK  215  A    between atoms: _523  and  _524
REMARK  216  A    between atoms: _529  and  _531
REMARK  217  A    between atoms: _531  and  _532
REMARK  218  A    between atoms: _531  and  _534
REMARK  219  A    between atoms: _537  and  _539
REMARK  220  A    between atoms: _539  and  _540
REMARK  221  A    between atoms: _539  and  _542
REMARK  222  A    between atoms: _542  and  _543
REMARK  223  A    between atoms: _548  and  _550
REMARK  224  A    between atoms: _550  and  _551
REMARK  225  A    between atoms: _550  and  _553
REMARK  226  A    between atoms: _553  and  _554
REMARK  227  A    between atoms: _557  and  _559
REMARK  228  A    between atoms: _559  and  _560
REMARK  229  A    between atoms: _559  and  _562
REMARK  230  A    between atoms: _562  and  _563
REMARK  231  A    between atoms: _566  and  _568
REMARK  232  A    between atoms: _568  and  _569
REMARK  233  A    between atoms: _571  and  _573
REMARK  234  A    between atoms: _573  and  _574
REMARK  235  A    between atoms: _573  and  _576
REMARK  236  A    between atoms: _576  and  _577
REMARK  237  A    between atoms: _577  and  _578
REMARK  238  A    between atoms: _578  and  _579
REMARK  239  A    between atoms: _588  and  _590
REMARK  240  A    between atoms: _590  and  _591
REMARK  241  A    between atoms: _590  and  _593
REMARK  242  A    between atoms: _593  and  _594
REMARK                            x       y       z     vdW  Elec       q    Type
REMARK                         _______ _______ _______ _____ _____    ______ ____
ROOT
ATOM      1  O   HOH     1      18.249  30.859  21.474  0.00  0.00    +0.000 OA
ENDROOT
TORSDOF 0
REMARK  Name = ../refined-set-2016/4zip/4zip_pocket.pdb
REMARK  242 active torsions:
REMARK  status: ('A' for Active; 'I' for Inactive)
REMARK    1  A    between atoms: _1  and  _3
REMARK    2  A    between atoms: _3  and  _4
REMARK    3  A    between atoms: _3  and  _6
REMARK    4  A    between atoms: _6  and  _7
REMARK    5  A    between atoms: _7  and  _8
REMARK    6  A    between atoms: _8  and  _9
REMARK    7  A    between atoms: _19  and  _20
REMARK    8  A    between atoms: _25  and  _27
REMARK    9  A    between atoms: _27  and  _28
REMARK   10  A    between atoms: _27  and  _30
REMARK   11  A    between atoms: _30  and  _31
REMARK   12  A    between atoms: _34  and  _36
REMARK   13  A    between atoms: _36  and  _37
REMARK   14  A    between atoms: _36  and  _39
REMARK   15  A    between atoms: _39  and  _40
REMARK   16  A    between atoms: _43  and  _45
REMARK   17  A    between atoms: _45  and  _46
REMARK   18  A    between atoms: _45  and  _48
REMARK   19  A    between atoms: _48  and  _49
REMARK   20  A    between atoms: _52  and  _54
REMARK   21  A    between atoms: _54  and  _55
REMARK   22  A    between atoms: _54  and  _57
REMARK   23  A    between atoms: _57  and  _58
REMARK   24  A    between atoms: _61  and  _63
REMARK   25  A    between atoms: _63  and  _64
REMARK   26  A    between atoms: _63  and  _66
REMARK   27  A    between atoms: _66  and  _67
REMARK   28  A    between atoms: _70  and  _72
REMARK   29  A    between atoms: _72  and  _73
REMARK   30  A    between atoms: _75  and  _77
REMARK   31  A    between atoms: _77  and  _78
REMARK   32  A    between atoms: _81  and  _83
REMARK   33  A    between atoms: _83  and  _84
REMARK   34  A    between atoms: _83  and  _86
REMARK   35  A    between atoms: _86  and  _87
REMARK   36  A    between atoms: _90  and  _92
REMARK   37  A    between atoms: _92  and  _93
REMARK   38  A    between atoms: _92  and  _95
REMARK   39  A    between atoms: _95  and  _96
REMARK   40  A    between atoms: _99  and  _101
REMARK   41  A    between atoms: _101  and  _102
REMARK   42  A    between atoms: _101  and  _104
REMARK   43  A    between atoms: _104  and  _105
REMARK   44  A    between atoms: _108  and  _110
REMARK   45  A    between atoms: _110  and  _111
REMARK   46  A    between atoms: _110  and  _113
REMARK   47  A    between atoms: _116  and  _118
REMARK   48  A    between atoms: _118  and  _119
REMARK   49  A    between atoms: _118  and  _121
REMARK   50  A    between atoms: _121  and  _122
REMARK   51  A    between atoms: _122  and  _123
REMARK   52  A    between atoms: _123  and  _124
REMARK   53  A    between atoms: _124  and  _125
REMARK   54  A    between atoms: _129  and  _131
REMARK   55  A    between atoms: _131  and  _132
REMARK   56  A    between atoms: _131  and  _134
REMARK   57  A    between atoms: _134  and  _135
REMARK   58  A    between atoms: _135  and  _136
REMARK   59  A    between atoms: _138  and  _140
REMARK   60  A    between atoms: _140  and  _141
REMARK   61  A    between atoms: _140  and  _143
REMARK   62  A    between atoms: _143  and  _144
REMARK   63  A    between atoms: _147  and  _149
REMARK   64  A    between atoms: _149  and  _150
REMARK   65  A    between atoms: _152  and  _154
REMARK   66  A    between atoms: _154  and  _155
REMARK   67  A    between atoms: _157  and  _159
REMARK   68  A    between atoms: _159  and  _160
REMARK   69  A    between atoms: _159  and  _162
REMARK   70  A    between atoms: _162  and  _163
REMARK   71  A    between atoms: _166  and  _168
REMARK   72  A    between atoms: _168  and  _169
REMARK   73  A    between atoms: _171  and  _173
REMARK   74  A    between atoms: _173  and  _174
REMARK   75  A    between atoms: _176  and  _178
REMARK   76  A    between atoms: _178  and  _179
REMARK   77  A    between atoms: _178  and  _181
REMARK   78  A    between atoms: _181  and  _182
REMARK   79  A    between atoms: _188  and  _190
REMARK   80  A    between atoms: _190  and  _191
REMARK   81  A    between atoms: _190  and  _193
REMARK   82  A    between atoms: _193  and  _194
REMARK   83  A    between atoms: _197  and  _199
REMARK   84  A    between atoms: _199  and  _200
REMARK   85  A    between atoms: _199  and  _202
REMARK   86  A    between atoms: _205  and  _207
REMARK   87  A    between atoms: _207  and  _208
REMARK   88  A    between atoms: _207  and  _210
REMARK   89  A    between atoms: _210  and  _211
REMARK   90  A    between atoms: _215  and  _216
REMARK   91  A    between atoms: _221  and  _223
REMARK   92  A    between atoms: _223  and  _224
REMARK   93  A    between atoms: _223  and  _226
REMARK   94  A    between atoms: _226  and  _227
REMARK   95  A    between atoms: _231  and  _232
REMARK   96  A    between atoms: _237  and  _239
REMARK   97  A    between atoms: _239  and  _240
REMARK   98  A    between atoms: _239  and  _242
REMARK   99  A    between atoms: _245  and  _247
REMARK  100  A    between atoms: _247  and  _248
REMARK  101  A    between atoms: _247  and  _250
REMARK  102  A    between atoms: _250  and  _251
REMARK  103  A    between atoms: _256  and  _258
REMARK  104  A    between atoms: _258  and  _259
REMARK  105  A    between atoms: _258  and  _261
REMARK  106  A    between atoms: _261  and  _262
REMARK  107  A    between atoms: _265  and  _267
REMARK  108  A    between atoms: _267  and  _268
REMARK  109  A    between atoms: _267  and  _270
REMARK  110  A    between atoms: _270  and  _271
REMARK  111  A    between atoms: _274  and  _276
REMARK  112  A    between atoms: _276  and  _277
REMARK  113  A    between atoms: _279  and  _281
REMARK  114  A    between atoms: _281  and  _282
REMARK  115  A    between atoms: _281  and  _284
REMARK  116  A    between atoms: _284  and  _285
REMARK  117  A    between atoms: _285  and  _286
REMARK  118  A    between atoms: _286  and  _287
REMARK  119  A    between atoms: _296  and  _298
REMARK  120  A    between atoms: _298  and  _299
REMARK  121  A    between atoms: _298  and  _301
REMARK  122  A    between atoms: _301  and  _302
REMARK  123  A    between atoms: _307  and  _309
REMARK  124  A    between atoms: _309  and  _310
REMARK  125  A    between atoms: _309  and  _312
REMARK  126  A    between atoms: _312  and  _313
REMARK  127  A    between atoms: _313  and  _314
REMARK  128  A    between atoms: _314  and  _315
REMARK  129  A    between atoms: _324  and  _326
REMARK  130  A    between atoms: _326  and  _327
REMARK  131  A    between atoms: _326  and  _329
REMARK  132  A    between atoms: _329  and  _330
REMARK  133  A    between atoms: _333  and  _335
REMARK  134  A    between atoms: _335  and  _336
REMARK  135  A    between atoms: _335  and  _338
REMARK  136  A    between atoms: _338  and  _339
REMARK  137  A    between atoms: _342  and  _344
REMARK  138  A    between atoms: _344  and  _345
REMARK  139  A    between atoms: _344  and  _347
REMARK  140  A    between atoms: _347  and  _348
REMARK  141  A    between atoms: _351  and  _353
REMARK  142  A    between atoms: _353  and  _354
REMARK  143  A    between atoms: _353  and  _356
REMARK  144  A    between atoms: _356  and  _357
REMARK  145  A    between atoms: _360  and  _362
REMARK  146  A    between atoms: _362  and  _363
REMARK  147  A    between atoms: _365  and  _367
REMARK  148  A    between atoms: _367  and  _368
REMARK  149  A    between atoms: _371  and  _373
REMARK  150  A    between atoms: _373  and  _374
REMARK  151  A    between atoms: _373  and  _376
REMARK  152  A    between atoms: _376  and  _377
REMARK  153  A    between atoms: _380  and  _382
REMARK  154  A    between atoms: _382  and  _383
REMARK  155  A    between atoms: _382  and  _385
REMARK  156  A    between atoms: _385  and  _386
REMARK  157  A    between atoms: _389  and  _391
REMARK  158  A    between atoms: _391  and  _392
REMARK  159  A    between atoms: _391  and  _394
REMARK  160  A    between atoms: _394  and  _395
REMARK  161  A    between atoms: _398  and  _400
REMARK  162  A    between atoms: _400  and  _401
REMARK  163  A    between atoms: _400  and  _403
REMARK  164  A    between atoms: _406  and  _408
REMARK  165  A    between atoms: _408  and  _409
REMARK  166  A    between atoms: _408  and  _411
REMARK  167  A    between atoms: _411  and  _412
REMARK  168  A    between atoms: _415  and  _417
REMARK  169  A    between atoms: _417  and  _418
REMARK  170  A    between atoms: _417  and  _420
REMARK  171  A    between atoms: _420  and  _421
REMARK  172  A    between atoms: _421  and  _422
REMARK  173  A    between atoms: _422  and  _423
REMARK  174  A    between atoms: _423  and  _424
REMARK  175  A    between atoms: _428  and  _430
REMARK  176  A    between atoms: _430  and  _431
REMARK  177  A    between atoms: _430  and  _433
REMARK  178  A    between atoms: _433  and  _434
REMARK  179  A    between atoms: _434  and  _435
REMARK  180  A    between atoms: _437  and  _439
REMARK  181  A    between atoms: _439  and  _440
REMARK  182  A    between atoms: _439  and  _442
REMARK  183  A    between atoms: _442  and  _443
REMARK  184  A    between atoms: _446  and  _448
REMARK  185  A    between atoms: _448  and  _449
REMARK  186  A    between atoms: _451  and  _453
REMARK  187  A    between atoms: _453  and  _454
REMARK  188  A    between atoms: _456  and  _458
REMARK  189  A    between atoms: _458  and  _459
REMARK  190  A    between atoms: _458  and  _461
REMARK  191  A    between atoms: _461  and  _462
REMARK  192  A    between atoms: _465  and  _467
REMARK  193  A    between atoms: _467  and  _468
REMARK  194  A    between atoms: _470  and  _472
REMARK  195  A    between atoms: _472  and  _473
REMARK  196  A    between atoms: _475  and  _477
REMARK  197  A    between atoms: _477  and  _478
REMARK  198  A    between atoms: _477  and  _480
REMARK  199  A    between atoms: _480  and  _481
REMARK  200  A    between atoms: _487  and  _489
REMARK  201  A    between atoms: _489  and  _490
REMARK  202  A    between atoms: _489  and  _492
REMARK  203  A    between atoms: _492  and  _493
REMARK  204  A    between atoms: _496  and  _498
REMARK  205  A    between atoms: _498  and  _499
REMARK  206  A    between atoms: _498  and  _501
REMARK  207  A    between atoms: _504  and  _506
REMARK  208  A    between atoms: _506  and  _507
REMARK  209  A    between atoms: _506  and  _509
REMARK  210  A    between atoms: _509  and  _510
REMARK  211  A    between atoms: _513  and  _515
REMARK  212  A    between atoms: _515  and  _516
REMARK  213  A    between atoms: _515  and  _518
REMARK  214  A    between atoms: _518  and  _519
REMARK  215  A    between atoms: _523  and  _524
REMARK  216  A    between atoms: _529  and  _531
REMARK  217  A    between atoms: _531  and  _532
REMARK  218  A    between atoms: _531  and  _534
REMARK  219  A    between atoms: _537  and  _539
REMARK  220  A    between atoms: _539  and  _540
REMARK  221  A    between atoms: _539  and  _542
REMARK  222  A    between atoms: _542  and  _543
REMARK  223  A    between atoms: _548  and  _550
REMARK  224  A    between atoms: _550  and  _551
REMARK  225  A    between atoms: _550  and  _553
REMARK  226  A    between atoms: _553  and  _554
REMARK  227  A    between atoms: _557  and  _559
REMARK  228  A    between atoms: _559  and  _560
REMARK  229  A    between atoms: _559  and  _562
REMARK  230  A    between atoms: _562  and  _563
REMARK  231  A    between atoms: _566  and  _568
REMARK  232  A    between atoms: _568  and  _569
REMARK  233  A    between atoms: _571  and  _573
REMARK  234  A    between atoms: _573  and  _574
REMARK  235  A    between atoms: _573  and  _576
REMARK  236  A    between atoms: _576  and  _577
REMARK  237  A    between atoms: _577  and  _578
REMARK  238  A    between atoms: _578  and  _579
REMARK  239  A    between atoms: _588  and  _590
REMARK  240  A    between atoms: _590  and  _591
REMARK  241  A    between atoms: _590  and  _593
REMARK  242  A    between atoms: _593  and  _594
REMARK                            x       y       z     vdW  Elec       q    Type
REMARK                         _______ _______ _______ _____ _____    ______ ____
ROOT
ATOM      1  O   HOH     1      20.848  35.901  17.606  0.00  0.00    +0.000 OA
ENDROOT
TORSDOF 0
REMARK  Name = ../refined-set-2016/4zip/4zip_pocket.pdb
REMARK  242 active torsions:
REMARK  status: ('A' for Active; 'I' for Inactive)
REMARK    1  A    between atoms: _1  and  _3
REMARK    2  A    between atoms: _3  and  _4
REMARK    3  A    between atoms: _3  and  _6
REMARK    4  A    between atoms: _6  and  _7
REMARK    5  A    between atoms: _7  and  _8
REMARK    6  A    between atoms: _8  and  _9
REMARK    7  A    between atoms: _19  and  _20
REMARK    8  A    between atoms: _25  and  _27
REMARK    9  A    between atoms: _27  and  _28
REMARK   10  A    between atoms: _27  and  _30
REMARK   11  A    between atoms: _30  and  _31
REMARK   12  A    between atoms: _34  and  _36
REMARK   13  A    between atoms: _36  and  _37
REMARK   14  A    between atoms: _36  and  _39
REMARK   15  A    between atoms: _39  and  _40
REMARK   16  A    between atoms: _43  and  _45
REMARK   17  A    between atoms: _45  and  _46
REMARK   18  A    between atoms: _45  and  _48
REMARK   19  A    between atoms: _48  and  _49
REMARK   20  A    between atoms: _52  and  _54
REMARK   21  A    between atoms: _54  and  _55
REMARK   22  A    between atoms: _54  and  _57
REMARK   23  A    between atoms: _57  and  _58
REMARK   24  A    between atoms: _61  and  _63
REMARK   25  A    between atoms: _63  and  _64
REMARK   26  A    between atoms: _63  and  _66
REMARK   27  A    between atoms: _66  and  _67
REMARK   28  A    between atoms: _70  and  _72
REMARK   29  A    between atoms: _72  and  _73
REMARK   30  A    between atoms: _75  and  _77
REMARK   31  A    between atoms: _77  and  _78
REMARK   32  A    between atoms: _81  and  _83
REMARK   33  A    between atoms: _83  and  _84
REMARK   34  A    between atoms: _83  and  _86
REMARK   35  A    between atoms: _86  and  _87
REMARK   36  A    between atoms: _90  and  _92
REMARK   37  A    between atoms: _92  and  _93
REMARK   38  A    between atoms: _92  and  _95
REMARK   39  A    between atoms: _95  and  _96
REMARK   40  A    between atoms: _99  and  _101
REMARK   41  A    between atoms: _101  and  _102
REMARK   42  A    between atoms: _101  and  _104
REMARK   43  A    between atoms: _104  and  _105
REMARK   44  A    between atoms: _108  and  _110
REMARK   45  A    between atoms: _110  and  _111
REMARK   46  A    between atoms: _110  and  _113
REMARK   47  A    between atoms: _116  and  _118
REMARK   48  A    between atoms: _118  and  _119
REMARK   49  A    between atoms: _118  and  _121
REMARK   50  A    between atoms: _121  and  _122
REMARK   51  A    between atoms: _122  and  _123
REMARK   52  A    between atoms: _123  and  _124
REMARK   53  A    between atoms: _124  and  _125
REMARK   54  A    between atoms: _129  and  _131
REMARK   55  A    between atoms: _131  and  _132
REMARK   56  A    between atoms: _131  and  _134
REMARK   57  A    between atoms: _134  and  _135
REMARK   58  A    between atoms: _135  and  _136
REMARK   59  A    between atoms: _138  and  _140
REMARK   60  A    between atoms: _140  and  _141
REMARK   61  A    between atoms: _140  and  _143
REMARK   62  A    between atoms: _143  and  _144
REMARK   63  A    between atoms: _147  and  _149
REMARK   64  A    between atoms: _149  and  _150
REMARK   65  A    between atoms: _152  and  _154
REMARK   66  A    between atoms: _154  and  _155
REMARK   67  A    between atoms: _157  and  _159
REMARK   68  A    between atoms: _159  and  _160
REMARK   69  A    between atoms: _159  and  _162
REMARK   70  A    between atoms: _162  and  _163
REMARK   71  A    between atoms: _166  and  _168
REMARK   72  A    between atoms: _168  and  _169
REMARK   73  A    between atoms: _171  and  _173
REMARK   74  A    between atoms: _173  and  _174
REMARK   75  A    between atoms: _176  and  _178
REMARK   76  A    between atoms: _178  and  _179
REMARK   77  A    between atoms: _178  and  _181
REMARK   78  A    between atoms: _181  and  _182
REMARK   79  A    between atoms: _188  and  _190
REMARK   80  A    between atoms: _190  and  _191
REMARK   81  A    between atoms: _190  and  _193
REMARK   82  A    between atoms: _193  and  _194
REMARK   83  A    between atoms: _197  and  _199
REMARK   84  A    between atoms: _199  and  _200
REMARK   85  A    between atoms: _199  and  _202
REMARK   86  A    between atoms: _205  and  _207
REMARK   87  A    between atoms: _207  and  _208
REMARK   88  A    between atoms: _207  and  _210
REMARK   89  A    between atoms: _210  and  _211
REMARK   90  A    between atoms: _215  and  _216
REMARK   91  A    between atoms: _221  and  _223
REMARK   92  A    between atoms: _223  and  _224
REMARK   93  A    between atoms: _223  and  _226
REMARK   94  A    between atoms: _226  and  _227
REMARK   95  A    between atoms: _231  and  _232
REMARK   96  A    between atoms: _237  and  _239
REMARK   97  A    between atoms: _239  and  _240
REMARK   98  A    between atoms: _239  and  _242
REMARK   99  A    between atoms: _245  and  _247
REMARK  100  A    between atoms: _247  and  _248
REMARK  101  A    between atoms: _247  and  _250
REMARK  102  A    between atoms: _250  and  _251
REMARK  103  A    between atoms: _256  and  _258
REMARK  104  A    between atoms: _258  and  _259
REMARK  105  A    between atoms: _258  and  _261
REMARK  106  A    between atoms: _261  and  _262
REMARK  107  A    between atoms: _265  and  _267
REMARK  108  A    between atoms: _267  and  _268
REMARK  109  A    between atoms: _267  and  _270
REMARK  110  A    between atoms: _270  and  _271
REMARK  111  A    between atoms: _274  and  _276
REMARK  112  A    between atoms: _276  and  _277
REMARK  113  A    between atoms: _279  and  _281
REMARK  114  A    between atoms: _281  and  _282
REMARK  115  A    between atoms: _281  and  _284
REMARK  116  A    between atoms: _284  and  _285
REMARK  117  A    between atoms: _285  and  _286
REMARK  118  A    between atoms: _286  and  _287
REMARK  119  A    between atoms: _296  and  _298
REMARK  120  A    between atoms: _298  and  _299
REMARK  121  A    between atoms: _298  and  _301
REMARK  122  A    between atoms: _301  and  _302
REMARK  123  A    between atoms: _307  and  _309
REMARK  124  A    between atoms: _309  and  _310
REMARK  125  A    between atoms: _309  and  _312
REMARK  126  A    between atoms: _312  and  _313
REMARK  127  A    between atoms: _313  and  _314
REMARK  128  A    between atoms: _314  and  _315
REMARK  129  A    between atoms: _324  and  _326
REMARK  130  A    between atoms: _326  and  _327
REMARK  131  A    between atoms: _326  and  _329
REMARK  132  A    between atoms: _329  and  _330
REMARK  133  A    between atoms: _333  and  _335
REMARK  134  A    between atoms: _335  and  _336
REMARK  135  A    between atoms: _335  and  _338
REMARK  136  A    between atoms: _338  and  _339
REMARK  137  A    between atoms: _342  and  _344
REMARK  138  A    between atoms: _344  and  _345
REMARK  139  A    between atoms: _344  and  _347
REMARK  140  A    between atoms: _347  and  _348
REMARK  141  A    between atoms: _351  and  _353
REMARK  142  A    between atoms: _353  and  _354
REMARK  143  A    between atoms: _353  and  _356
REMARK  144  A    between atoms: _356  and  _357
REMARK  145  A    between atoms: _360  and  _362
REMARK  146  A    between atoms: _362  and  _363
REMARK  147  A    between atoms: _365  and  _367
REMARK  148  A    between atoms: _367  and  _368
REMARK  149  A    between atoms: _371  and  _373
REMARK  150  A    between atoms: _373  and  _374
REMARK  151  A    between atoms: _373  and  _376
REMARK  152  A    between atoms: _376  and  _377
REMARK  153  A    between atoms: _380  and  _382
REMARK  154  A    between atoms: _382  and  _383
REMARK  155  A    between atoms: _382  and  _385
REMARK  156  A    between atoms: _385  and  _386
REMARK  157  A    between atoms: _389  and  _391
REMARK  158  A    between atoms: _391  and  _392
REMARK  159  A    between atoms: _391  and  _394
REMARK  160  A    between atoms: _394  and  _395
REMARK  161  A    between atoms: _398  and  _400
REMARK  162  A    between atoms: _400  and  _401
REMARK  163  A    between atoms: _400  and  _403
REMARK  164  A    between atoms: _406  and  _408
REMARK  165  A    between atoms: _408  and  _409
REMARK  166  A    between atoms: _408  and  _411
REMARK  167  A    between atoms: _411  and  _412
REMARK  168  A    between atoms: _415  and  _417
REMARK  169  A    between atoms: _417  and  _418
REMARK  170  A    between atoms: _417  and  _420
REMARK  171  A    between atoms: _420  and  _421
REMARK  172  A    between atoms: _421  and  _422
REMARK  173  A    between atoms: _422  and  _423
REMARK  174  A    between atoms: _423  and  _424
REMARK  175  A    between atoms: _428  and  _430
REMARK  176  A    between atoms: _430  and  _431
REMARK  177  A    between atoms: _430  and  _433
REMARK  178  A    between atoms: _433  and  _434
REMARK  179  A    between atoms: _434  and  _435
REMARK  180  A    between atoms: _437  and  _439
REMARK  181  A    between atoms: _439  and  _440
REMARK  182  A    between atoms: _439  and  _442
REMARK  183  A    between atoms: _442  and  _443
REMARK  184  A    between atoms: _446  and  _448
REMARK  185  A    between atoms: _448  and  _449
REMARK  186  A    between atoms: _451  and  _453
REMARK  187  A    between atoms: _453  and  _454
REMARK  188  A    between atoms: _456  and  _458
REMARK  189  A    between atoms: _458  and  _459
REMARK  190  A    between atoms: _458  and  _461
REMARK  191  A    between atoms: _461  and  _462
REMARK  192  A    between atoms: _465  and  _467
REMARK  193  A    between atoms: _467  and  _468
REMARK  194  A    between atoms: _470  and  _472
REMARK  195  A    between atoms: _472  and  _473
REMARK  196  A    between atoms: _475  and  _477
REMARK  197  A    between atoms: _477  and  _478
REMARK  198  A    between atoms: _477  and  _480
REMARK  199  A    between atoms: _480  and  _481
REMARK  200  A    between atoms: _487  and  _489
REMARK  201  A    between atoms: _489  and  _490
REMARK  202  A    between atoms: _489  and  _492
REMARK  203  A    between atoms: _492  and  _493
REMARK  204  A    between atoms: _496  and  _498
REMARK  205  A    between atoms: _498  and  _499
REMARK  206  A    between atoms: _498  and  _501
REMARK  207  A    between atoms: _504  and  _506
REMARK  208  A    between atoms: _506  and  _507
REMARK  209  A    between atoms: _506  and  _509
REMARK  210  A    between atoms: _509  and  _510
REMARK  211  A    between atoms: _513  and  _515
REMARK  212  A    between atoms: _515  and  _516
REMARK  213  A    between atoms: _515  and  _518
REMARK  214  A    between atoms: _518  and  _519
REMARK  215  A    between atoms: _523  and  _524
REMARK  216  A    between atoms: _529  and  _531
REMARK  217  A    between atoms: _531  and  _532
REMARK  218  A    between atoms: _531  and  _534
REMARK  219  A    between atoms: _537  and  _539
REMARK  220  A    between atoms: _539  and  _540
REMARK  221  A    between atoms: _539  and  _542
REMARK  222  A    between atoms: _542  and  _543
REMARK  223  A    between atoms: _548  and  _550
REMARK  224  A    between atoms: _550  and  _551
REMARK  225  A    between atoms: _550  and  _553
REMARK  226  A    between atoms: _553  and  _554
REMARK  227  A    between atoms: _557  and  _559
REMARK  228  A    between atoms: _559  and  _560
REMARK  229  A    between atoms: _559  and  _562
REMARK  230  A    between atoms: _562  and  _563
REMARK  231  A    between atoms: _566  and  _568
REMARK  232  A    between atoms: _568  and  _569
REMARK  233  A    between atoms: _571  and  _573
REMARK  234  A    between atoms: _573  and  _574
REMARK  235  A    between atoms: _573  and  _576
REMARK  236  A    between atoms: _576  and  _577
REMARK  237  A    between atoms: _577  and  _578
REMARK  238  A    between atoms: _578  and  _579
REMARK  239  A    between atoms: _588  and  _590
REMARK  240  A    between atoms: _590  and  _591
REMARK  241  A    between atoms: _590  and  _593
REMARK  242  A    between atoms: _593  and  _594
REMARK                            x       y       z     vdW  Elec       q    Type
REMARK                         _______ _______ _______ _____ _____    ______ ____
ROOT
ATOM      1  O   HOH     1      20.533  28.044  18.410  0.00  0.00    +0.000 OA
ENDROOT
TORSDOF 0
REMARK  Name = ../refined-set-2016/4zip/4zip_pocket.pdb
REMARK  242 active torsions:
REMARK  status: ('A' for Active; 'I' for Inactive)
REMARK    1  A    between atoms: _1  and  _3
REMARK    2  A    between atoms: _3  and  _4
REMARK    3  A    between atoms: _3  and  _6
REMARK    4  A    between atoms: _6  and  _7
REMARK    5  A    between atoms: _7  and  _8
REMARK    6  A    between atoms: _8  and  _9
REMARK    7  A    between atoms: _19  and  _20
REMARK    8  A    between atoms: _25  and  _27
REMARK    9  A    between atoms: _27  and  _28
REMARK   10  A    between atoms: _27  and  _30
REMARK   11  A    between atoms: _30  and  _31
REMARK   12  A    between atoms: _34  and  _36
REMARK   13  A    between atoms: _36  and  _37
REMARK   14  A    between atoms: _36  and  _39
REMARK   15  A    between atoms: _39  and  _40
REMARK   16  A    between atoms: _43  and  _45
REMARK   17  A    between atoms: _45  and  _46
REMARK   18  A    between atoms: _45  and  _48
REMARK   19  A    between atoms: _48  and  _49
REMARK   20  A    between atoms: _52  and  _54
REMARK   21  A    between atoms: _54  and  _55
REMARK   22  A    between atoms: _54  and  _57
REMARK   23  A    between atoms: _57  and  _58
REMARK   24  A    between atoms: _61  and  _63
REMARK   25  A    between atoms: _63  and  _64
REMARK   26  A    between atoms: _63  and  _66
REMARK   27  A    between atoms: _66  and  _67
REMARK   28  A    between atoms: _70  and  _72
REMARK   29  A    between atoms: _72  and  _73
REMARK   30  A    between atoms: _75  and  _77
REMARK   31  A    between atoms: _77  and  _78
REMARK   32  A    between atoms: _81  and  _83
REMARK   33  A    between atoms: _83  and  _84
REMARK   34  A    between atoms: _83  and  _86
REMARK   35  A    between atoms: _86  and  _87
REMARK   36  A    between atoms: _90  and  _92
REMARK   37  A    between atoms: _92  and  _93
REMARK   38  A    between atoms: _92  and  _95
REMARK   39  A    between atoms: _95  and  _96
REMARK   40  A    between atoms: _99  and  _101
REMARK   41  A    between atoms: _101  and  _102
REMARK   42  A    between atoms: _101  and  _104
REMARK   43  A    between atoms: _104  and  _105
REMARK   44  A    between atoms: _108  and  _110
REMARK   45  A    between atoms: _110  and  _111
REMARK   46  A    between atoms: _110  and  _113
REMARK   47  A    between atoms: _116  and  _118
REMARK   48  A    between atoms: _118  and  _119
REMARK   49  A    between atoms: _118  and  _121
REMARK   50  A    between atoms: _121  and  _122
REMARK   51  A    between atoms: _122  and  _123
REMARK   52  A    between atoms: _123  and  _124
REMARK   53  A    between atoms: _124  and  _125
REMARK   54  A    between atoms: _129  and  _131
REMARK   55  A    between atoms: _131  and  _132
REMARK   56  A    between atoms: _131  and  _134
REMARK   57  A    between atoms: _134  and  _135
REMARK   58  A    between atoms: _135  and  _136
REMARK   59  A    between atoms: _138  and  _140
REMARK   60  A    between atoms: _140  and  _141
REMARK   61  A    between atoms: _140  and  _143
REMARK   62  A    between atoms: _143  and  _144
REMARK   63  A    between atoms: _147  and  _149
REMARK   64  A    between atoms: _149  and  _150
REMARK   65  A    between atoms: _152  and  _154
REMARK   66  A    between atoms: _154  and  _155
REMARK   67  A    between atoms: _157  and  _159
REMARK   68  A    between atoms: _159  and  _160
REMARK   69  A    between atoms: _159  and  _162
REMARK   70  A    between atoms: _162  and  _163
REMARK   71  A    between atoms: _166  and  _168
REMARK   72  A    between atoms: _168  and  _169
REMARK   73  A    between atoms: _171  and  _173
REMARK   74  A    between atoms: _173  and  _174
REMARK   75  A    between atoms: _176  and  _178
REMARK   76  A    between atoms: _178  and  _179
REMARK   77  A    between atoms: _178  and  _181
REMARK   78  A    between atoms: _181  and  _182
REMARK   79  A    between atoms: _188  and  _190
REMARK   80  A    between atoms: _190  and  _191
REMARK   81  A    between atoms: _190  and  _193
REMARK   82  A    between atoms: _193  and  _194
REMARK   83  A    between atoms: _197  and  _199
REMARK   84  A    between atoms: _199  and  _200
REMARK   85  A    between atoms: _199  and  _202
REMARK   86  A    between atoms: _205  and  _207
REMARK   87  A    between atoms: _207  and  _208
REMARK   88  A    between atoms: _207  and  _210
REMARK   89  A    between atoms: _210  and  _211
REMARK   90  A    between atoms: _215  and  _216
REMARK   91  A    between atoms: _221  and  _223
REMARK   92  A    between atoms: _223  and  _224
REMARK   93  A    between atoms: _223  and  _226
REMARK   94  A    between atoms: _226  and  _227
REMARK   95  A    between atoms: _231  and  _232
REMARK   96  A    between atoms: _237  and  _239
REMARK   97  A    between atoms: _239  and  _240
REMARK   98  A    between atoms: _239  and  _242
REMARK   99  A    between atoms: _245  and  _247
REMARK  100  A    between atoms: _247  and  _248
REMARK  101  A    between atoms: _247  and  _250
REMARK  102  A    between atoms: _250  and  _251
REMARK  103  A    between atoms: _256  and  _258
REMARK  104  A    between atoms: _258  and  _259
REMARK  105  A    between atoms: _258  and  _261
REMARK  106  A    between atoms: _261  and  _262
REMARK  107  A    between atoms: _265  and  _267
REMARK  108  A    between atoms: _267  and  _268
REMARK  109  A    between atoms: _267  and  _270
REMARK  110  A    between atoms: _270  and  _271
REMARK  111  A    between atoms: _274  and  _276
REMARK  112  A    between atoms: _276  and  _277
REMARK  113  A    between atoms: _279  and  _281
REMARK  114  A    between atoms: _281  and  _282
REMARK  115  A    between atoms: _281  and  _284
REMARK  116  A    between atoms: _284  and  _285
REMARK  117  A    between atoms: _285  and  _286
REMARK  118  A    between atoms: _286  and  _287
REMARK  119  A    between atoms: _296  and  _298
REMARK  120  A    between atoms: _298  and  _299
REMARK  121  A    between atoms: _298  and  _301
REMARK  122  A    between atoms: _301  and  _302
REMARK  123  A    between atoms: _307  and  _309
REMARK  124  A    between atoms: _309  and  _310
REMARK  125  A    between atoms: _309  and  _312
REMARK  126  A    between atoms: _312  and  _313
REMARK  127  A    between atoms: _313  and  _314
REMARK  128  A    between atoms: _314  and  _315
REMARK  129  A    between atoms: _324  and  _326
REMARK  130  A    between atoms: _326  and  _327
REMARK  131  A    between atoms: _326  and  _329
REMARK  132  A    between atoms: _329  and  _330
REMARK  133  A    between atoms: _333  and  _335
REMARK  134  A    between atoms: _335  and  _336
REMARK  135  A    between atoms: _335  and  _338
REMARK  136  A    between atoms: _338  and  _339
REMARK  137  A    between atoms: _342  and  _344
REMARK  138  A    between atoms: _344  and  _345
REMARK  139  A    between atoms: _344  and  _347
REMARK  140  A    between atoms: _347  and  _348
REMARK  141  A    between atoms: _351  and  _353
REMARK  142  A    between atoms: _353  and  _354
REMARK  143  A    between atoms: _353  and  _356
REMARK  144  A    between atoms: _356  and  _357
REMARK  145  A    between atoms: _360  and  _362
REMARK  146  A    between atoms: _362  and  _363
REMARK  147  A    between atoms: _365  and  _367
REMARK  148  A    between atoms: _367  and  _368
REMARK  149  A    between atoms: _371  and  _373
REMARK  150  A    between atoms: _373  and  _374
REMARK  151  A    between atoms: _373  and  _376
REMARK  152  A    between atoms: _376  and  _377
REMARK  153  A    between atoms: _380  and  _382
REMARK  154  A    between atoms: _382  and  _383
REMARK  155  A    between atoms: _382  and  _385
REMARK  156  A    between atoms: _385  and  _386
REMARK  157  A    between atoms: _389  and  _391
REMARK  158  A    between atoms: _391  and  _392
REMARK  159  A    between atoms: _391  and  _394
REMARK  160  A    between atoms: _394  and  _395
REMARK  161  A    between atoms: _398  and  _400
REMARK  162  A    between atoms: _400  and  _401
REMARK  163  A    between atoms: _400  and  _403
REMARK  164  A    between atoms: _406  and  _408
REMARK  165  A    between atoms: _408  and  _409
REMARK  166  A    between atoms: _408  and  _411
REMARK  167  A    between atoms: _411  and  _412
REMARK  168  A    between atoms: _415  and  _417
REMARK  169  A    between atoms: _417  and  _418
REMARK  170  A    between atoms: _417  and  _420
REMARK  171  A    between atoms: _420  and  _421
REMARK  172  A    between atoms: _421  and  _422
REMARK  173  A    between atoms: _422  and  _423
REMARK  174  A    between atoms: _423  and  _424
REMARK  175  A    between atoms: _428  and  _430
REMARK  176  A    between atoms: _430  and  _431
REMARK  177  A    between atoms: _430  and  _433
REMARK  178  A    between atoms: _433  and  _434
REMARK  179  A    between atoms: _434  and  _435
REMARK  180  A    between atoms: _437  and  _439
REMARK  181  A    between atoms: _439  and  _440
REMARK  182  A    between atoms: _439  and  _442
REMARK  183  A    between atoms: _442  and  _443
REMARK  184  A    between atoms: _446  and  _448
REMARK  185  A    between atoms: _448  and  _449
REMARK  186  A    between atoms: _451  and  _453
REMARK  187  A    between atoms: _453  and  _454
REMARK  188  A    between atoms: _456  and  _458
REMARK  189  A    between atoms: _458  and  _459
REMARK  190  A    between atoms: _458  and  _461
REMARK  191  A    between atoms: _461  and  _462
REMARK  192  A    between atoms: _465  and  _467
REMARK  193  A    between atoms: _467  and  _468
REMARK  194  A    between atoms: _470  and  _472
REMARK  195  A    between atoms: _472  and  _473
REMARK  196  A    between atoms: _475  and  _477
REMARK  197  A    between atoms: _477  and  _478
REMARK  198  A    between atoms: _477  and  _480
REMARK  199  A    between atoms: _480  and  _481
REMARK  200  A    between atoms: _487  and  _489
REMARK  201  A    between atoms: _489  and  _490
REMARK  202  A    between atoms: _489  and  _492
REMARK  203  A    between atoms: _492  and  _493
REMARK  204  A    between atoms: _496  and  _498
REMARK  205  A    between atoms: _498  and  _499
REMARK  206  A    between atoms: _498  and  _501
REMARK  207  A    between atoms: _504  and  _506
REMARK  208  A    between atoms: _506  and  _507
REMARK  209  A    between atoms: _506  and  _509
REMARK  210  A    between atoms: _509  and  _510
REMARK  211  A    between atoms: _513  and  _515
REMARK  212  A    between atoms: _515  and  _516
REMARK  213  A    between atoms: _515  and  _518
REMARK  214  A    between atoms: _518  and  _519
REMARK  215  A    between atoms: _523  and  _524
REMARK  216  A    between atoms: _529  and  _531
REMARK  217  A    between atoms: _531  and  _532
REMARK  218  A    between atoms: _531  and  _534
REMARK  219  A    between atoms: _537  and  _539
REMARK  220  A    between atoms: _539  and  _540
REMARK  221  A    between atoms: _539  and  _542
REMARK  222  A    between atoms: _542  and  _543
REMARK  223  A    between atoms: _548  and  _550
REMARK  224  A    between atoms: _550  and  _551
REMARK  225  A    between atoms: _550  and  _553
REMARK  226  A    between atoms: _553  and  _554
REMARK  227  A    between atoms: _557  and  _559
REMARK  228  A    between atoms: _559  and  _560
REMARK  229  A    between atoms: _559  and  _562
REMARK  230  A    between atoms: _562  and  _563
REMARK  231  A    between atoms: _566  and  _568
REMARK  232  A    between atoms: _568  and  _569
REMARK  233  A    between atoms: _571  and  _573
REMARK  234  A    between atoms: _573  and  _574
REMARK  235  A    between atoms: _573  and  _576
REMARK  236  A    between atoms: _576  and  _577
REMARK  237  A    between atoms: _577  and  _578
REMARK  238  A    between atoms: _578  and  _579
REMARK  239  A    between atoms: _588  and  _590
REMARK  240  A    between atoms: _590  and  _591
REMARK  241  A    between atoms: _590  and  _593
REMARK  242  A    between atoms: _593  and  _594
REMARK                            x       y       z     vdW  Elec       q    Type
REMARK                         _______ _______ _______ _____ _____    ______ ____
ROOT
ATOM      1  O   HOH     1       8.867  24.704   7.408  0.00  0.00    +0.000 OA
ENDROOT
TORSDOF 0
REMARK  Name = ../refined-set-2016/4zip/4zip_pocket.pdb
REMARK  242 active torsions:
REMARK  status: ('A' for Active; 'I' for Inactive)
REMARK    1  A    between atoms: _1  and  _3
REMARK    2  A    between atoms: _3  and  _4
REMARK    3  A    between atoms: _3  and  _6
REMARK    4  A    between atoms: _6  and  _7
REMARK    5  A    between atoms: _7  and  _8
REMARK    6  A    between atoms: _8  and  _9
REMARK    7  A    between atoms: _19  and  _20
REMARK    8  A    between atoms: _25  and  _27
REMARK    9  A    between atoms: _27  and  _28
REMARK   10  A    between atoms: _27  and  _30
REMARK   11  A    between atoms: _30  and  _31
REMARK   12  A    between atoms: _34  and  _36
REMARK   13  A    between atoms: _36  and  _37
REMARK   14  A    between atoms: _36  and  _39
REMARK   15  A    between atoms: _39  and  _40
REMARK   16  A    between atoms: _43  and  _45
REMARK   17  A    between atoms: _45  and  _46
REMARK   18  A    between atoms: _45  and  _48
REMARK   19  A    between atoms: _48  and  _49
REMARK   20  A    between atoms: _52  and  _54
REMARK   21  A    between atoms: _54  and  _55
REMARK   22  A    between atoms: _54  and  _57
REMARK   23  A    between atoms: _57  and  _58
REMARK   24  A    between atoms: _61  and  _63
REMARK   25  A    between atoms: _63  and  _64
REMARK   26  A    between atoms: _63  and  _66
REMARK   27  A    between atoms: _66  and  _67
REMARK   28  A    between atoms: _70  and  _72
REMARK   29  A    between atoms: _72  and  _73
REMARK   30  A    between atoms: _75  and  _77
REMARK   31  A    between atoms: _77  and  _78
REMARK   32  A    between atoms: _81  and  _83
REMARK   33  A    between atoms: _83  and  _84
REMARK   34  A    between atoms: _83  and  _86
REMARK   35  A    between atoms: _86  and  _87
REMARK   36  A    between atoms: _90  and  _92
REMARK   37  A    between atoms: _92  and  _93
REMARK   38  A    between atoms: _92  and  _95
REMARK   39  A    between atoms: _95  and  _96
REMARK   40  A    between atoms: _99  and  _101
REMARK   41  A    between atoms: _101  and  _102
REMARK   42  A    between atoms: _101  and  _104
REMARK   43  A    between atoms: _104  and  _105
REMARK   44  A    between atoms: _108  and  _110
REMARK   45  A    between atoms: _110  and  _111
REMARK   46  A    between atoms: _110  and  _113
REMARK   47  A    between atoms: _116  and  _118
REMARK   48  A    between atoms: _118  and  _119
REMARK   49  A    between atoms: _118  and  _121
REMARK   50  A    between atoms: _121  and  _122
REMARK   51  A    between atoms: _122  and  _123
REMARK   52  A    between atoms: _123  and  _124
REMARK   53  A    between atoms: _124  and  _125
REMARK   54  A    between atoms: _129  and  _131
REMARK   55  A    between atoms: _131  and  _132
REMARK   56  A    between atoms: _131  and  _134
REMARK   57  A    between atoms: _134  and  _135
REMARK   58  A    between atoms: _135  and  _136
REMARK   59  A    between atoms: _138  and  _140
REMARK   60  A    between atoms: _140  and  _141
REMARK   61  A    between atoms: _140  and  _143
REMARK   62  A    between atoms: _143  and  _144
REMARK   63  A    between atoms: _147  and  _149
REMARK   64  A    between atoms: _149  and  _150
REMARK   65  A    between atoms: _152  and  _154
REMARK   66  A    between atoms: _154  and  _155
REMARK   67  A    between atoms: _157  and  _159
REMARK   68  A    between atoms: _159  and  _160
REMARK   69  A    between atoms: _159  and  _162
REMARK   70  A    between atoms: _162  and  _163
REMARK   71  A    between atoms: _166  and  _168
REMARK   72  A    between atoms: _168  and  _169
REMARK   73  A    between atoms: _171  and  _173
REMARK   74  A    between atoms: _173  and  _174
REMARK   75  A    between atoms: _176  and  _178
REMARK   76  A    between atoms: _178  and  _179
REMARK   77  A    between atoms: _178  and  _181
REMARK   78  A    between atoms: _181  and  _182
REMARK   79  A    between atoms: _188  and  _190
REMARK   80  A    between atoms: _190  and  _191
REMARK   81  A    between atoms: _190  and  _193
REMARK   82  A    between atoms: _193  and  _194
REMARK   83  A    between atoms: _197  and  _199
REMARK   84  A    between atoms: _199  and  _200
REMARK   85  A    between atoms: _199  and  _202
REMARK   86  A    between atoms: _205  and  _207
REMARK   87  A    between atoms: _207  and  _208
REMARK   88  A    between atoms: _207  and  _210
REMARK   89  A    between atoms: _210  and  _211
REMARK   90  A    between atoms: _215  and  _216
REMARK   91  A    between atoms: _221  and  _223
REMARK   92  A    between atoms: _223  and  _224
REMARK   93  A    between atoms: _223  and  _226
REMARK   94  A    between atoms: _226  and  _227
REMARK   95  A    between atoms: _231  and  _232
REMARK   96  A    between atoms: _237  and  _239
REMARK   97  A    between atoms: _239  and  _240
REMARK   98  A    between atoms: _239  and  _242
REMARK   99  A    between atoms: _245  and  _247
REMARK  100  A    between atoms: _247  and  _248
REMARK  101  A    between atoms: _247  and  _250
REMARK  102  A    between atoms: _250  and  _251
REMARK  103  A    between atoms: _256  and  _258
REMARK  104  A    between atoms: _258  and  _259
REMARK  105  A    between atoms: _258  and  _261
REMARK  106  A    between atoms: _261  and  _262
REMARK  107  A    between atoms: _265  and  _267
REMARK  108  A    between atoms: _267  and  _268
REMARK  109  A    between atoms: _267  and  _270
REMARK  110  A    between atoms: _270  and  _271
REMARK  111  A    between atoms: _274  and  _276
REMARK  112  A    between atoms: _276  and  _277
REMARK  113  A    between atoms: _279  and  _281
REMARK  114  A    between atoms: _281  and  _282
REMARK  115  A    between atoms: _281  and  _284
REMARK  116  A    between atoms: _284  and  _285
REMARK  117  A    between atoms: _285  and  _286
REMARK  118  A    between atoms: _286  and  _287
REMARK  119  A    between atoms: _296  and  _298
REMARK  120  A    between atoms: _298  and  _299
REMARK  121  A    between atoms: _298  and  _301
REMARK  122  A    between atoms: _301  and  _302
REMARK  123  A    between atoms: _307  and  _309
REMARK  124  A    between atoms: _309  and  _310
REMARK  125  A    between atoms: _309  and  _312
REMARK  126  A    between atoms: _312  and  _313
REMARK  127  A    between atoms: _313  and  _314
REMARK  128  A    between atoms: _314  and  _315
REMARK  129  A    between atoms: _324  and  _326
REMARK  130  A    between atoms: _326  and  _327
REMARK  131  A    between atoms: _326  and  _329
REMARK  132  A    between atoms: _329  and  _330
REMARK  133  A    between atoms: _333  and  _335
REMARK  134  A    between atoms: _335  and  _336
REMARK  135  A    between atoms: _335  and  _338
REMARK  136  A    between atoms: _338  and  _339
REMARK  137  A    between atoms: _342  and  _344
REMARK  138  A    between atoms: _344  and  _345
REMARK  139  A    between atoms: _344  and  _347
REMARK  140  A    between atoms: _347  and  _348
REMARK  141  A    between atoms: _351  and  _353
REMARK  142  A    between atoms: _353  and  _354
REMARK  143  A    between atoms: _353  and  _356
REMARK  144  A    between atoms: _356  and  _357
REMARK  145  A    between atoms: _360  and  _362
REMARK  146  A    between atoms: _362  and  _363
REMARK  147  A    between atoms: _365  and  _367
REMARK  148  A    between atoms: _367  and  _368
REMARK  149  A    between atoms: _371  and  _373
REMARK  150  A    between atoms: _373  and  _374
REMARK  151  A    between atoms: _373  and  _376
REMARK  152  A    between atoms: _376  and  _377
REMARK  153  A    between atoms: _380  and  _382
REMARK  154  A    between atoms: _382  and  _383
REMARK  155  A    between atoms: _382  and  _385
REMARK  156  A    between atoms: _385  and  _386
REMARK  157  A    between atoms: _389  and  _391
REMARK  158  A    between atoms: _391  and  _392
REMARK  159  A    between atoms: _391  and  _394
REMARK  160  A    between atoms: _394  and  _395
REMARK  161  A    between atoms: _398  and  _400
REMARK  162  A    between atoms: _400  and  _401
REMARK  163  A    between atoms: _400  and  _403
REMARK  164  A    between atoms: _406  and  _408
REMARK  165  A    between atoms: _408  and  _409
REMARK  166  A    between atoms: _408  and  _411
REMARK  167  A    between atoms: _411  and  _412
REMARK  168  A    between atoms: _415  and  _417
REMARK  169  A    between atoms: _417  and  _418
REMARK  170  A    between atoms: _417  and  _420
REMARK  171  A    between atoms: _420  and  _421
REMARK  172  A    between atoms: _421  and  _422
REMARK  173  A    between atoms: _422  and  _423
REMARK  174  A    between atoms: _423  and  _424
REMARK  175  A    between atoms: _428  and  _430
REMARK  176  A    between atoms: _430  and  _431
REMARK  177  A    between atoms: _430  and  _433
REMARK  178  A    between atoms: _433  and  _434
REMARK  179  A    between atoms: _434  and  _435
REMARK  180  A    between atoms: _437  and  _439
REMARK  181  A    between atoms: _439  and  _440
REMARK  182  A    between atoms: _439  and  _442
REMARK  183  A    between atoms: _442  and  _443
REMARK  184  A    between atoms: _446  and  _448
REMARK  185  A    between atoms: _448  and  _449
REMARK  186  A    between atoms: _451  and  _453
REMARK  187  A    between atoms: _453  and  _454
REMARK  188  A    between atoms: _456  and  _458
REMARK  189  A    between atoms: _458  and  _459
REMARK  190  A    between atoms: _458  and  _461
REMARK  191  A    between atoms: _461  and  _462
REMARK  192  A    between atoms: _465  and  _467
REMARK  193  A    between atoms: _467  and  _468
REMARK  194  A    between atoms: _470  and  _472
REMARK  195  A    between atoms: _472  and  _473
REMARK  196  A    between atoms: _475  and  _477
REMARK  197  A    between atoms: _477  and  _478
REMARK  198  A    between atoms: _477  and  _480
REMARK  199  A    between atoms: _480  and  _481
REMARK  200  A    between atoms: _487  and  _489
REMARK  201  A    between atoms: _489  and  _490
REMARK  202  A    between atoms: _489  and  _492
REMARK  203  A    between atoms: _492  and  _493
REMARK  204  A    between atoms: _496  and  _498
REMARK  205  A    between atoms: _498  and  _499
REMARK  206  A    between atoms: _498  and  _501
REMARK  207  A    between atoms: _504  and  _506
REMARK  208  A    between atoms: _506  and  _507
REMARK  209  A    between atoms: _506  and  _509
REMARK  210  A    between atoms: _509  and  _510
REMARK  211  A    between atoms: _513  and  _515
REMARK  212  A    between atoms: _515  and  _516
REMARK  213  A    between atoms: _515  and  _518
REMARK  214  A    between atoms: _518  and  _519
REMARK  215  A    between atoms: _523  and  _524
REMARK  216  A    between atoms: _529  and  _531
REMARK  217  A    between atoms: _531  and  _532
REMARK  218  A    between atoms: _531  and  _534
REMARK  219  A    between atoms: _537  and  _539
REMARK  220  A    between atoms: _539  and  _540
REMARK  221  A    between atoms: _539  and  _542
REMARK  222  A    between atoms: _542  and  _543
REMARK  223  A    between atoms: _548  and  _550
REMARK  224  A    between atoms: _550  and  _551
REMARK  225  A    between atoms: _550  and  _553
REMARK  226  A    between atoms: _553  and  _554
REMARK  227  A    between atoms: _557  and  _559
REMARK  228  A    between atoms: _559  and  _560
REMARK  229  A    between atoms: _559  and  _562
REMARK  230  A    between atoms: _562  and  _563
REMARK  231  A    between atoms: _566  and  _568
REMARK  232  A    between atoms: _568  and  _569
REMARK  233  A    between atoms: _571  and  _573
REMARK  234  A    between atoms: _573  and  _574
REMARK  235  A    between atoms: _573  and  _576
REMARK  236  A    between atoms: _576  and  _577
REMARK  237  A    between atoms: _577  and  _578
REMARK  238  A    between atoms: _578  and  _579
REMARK  239  A    between atoms: _588  and  _590
REMARK  240  A    between atoms: _590  and  _591
REMARK  241  A    between atoms: _590  and  _593
REMARK  242  A    between atoms: _593  and  _594
REMARK                            x       y       z     vdW  Elec       q    Type
REMARK                         _______ _______ _______ _____ _____    ______ ____
ROOT
ATOM      1  O   HOH     1       5.079  21.478  11.471  0.00  0.00    +0.000 OA
ENDROOT
TORSDOF 0
REMARK  Name = ../refined-set-2016/4zip/4zip_pocket.pdb
REMARK  242 active torsions:
REMARK  status: ('A' for Active; 'I' for Inactive)
REMARK    1  A    between atoms: _1  and  _3
REMARK    2  A    between atoms: _3  and  _4
REMARK    3  A    between atoms: _3  and  _6
REMARK    4  A    between atoms: _6  and  _7
REMARK    5  A    between atoms: _7  and  _8
REMARK    6  A    between atoms: _8  and  _9
REMARK    7  A    between atoms: _19  and  _20
REMARK    8  A    between atoms: _25  and  _27
REMARK    9  A    between atoms: _27  and  _28
REMARK   10  A    between atoms: _27  and  _30
REMARK   11  A    between atoms: _30  and  _31
REMARK   12  A    between atoms: _34  and  _36
REMARK   13  A    between atoms: _36  and  _37
REMARK   14  A    between atoms: _36  and  _39
REMARK   15  A    between atoms: _39  and  _40
REMARK   16  A    between atoms: _43  and  _45
REMARK   17  A    between atoms: _45  and  _46
REMARK   18  A    between atoms: _45  and  _48
REMARK   19  A    between atoms: _48  and  _49
REMARK   20  A    between atoms: _52  and  _54
REMARK   21  A    between atoms: _54  and  _55
REMARK   22  A    between atoms: _54  and  _57
REMARK   23  A    between atoms: _57  and  _58
REMARK   24  A    between atoms: _61  and  _63
REMARK   25  A    between atoms: _63  and  _64
REMARK   26  A    between atoms: _63  and  _66
REMARK   27  A    between atoms: _66  and  _67
REMARK   28  A    between atoms: _70  and  _72
REMARK   29  A    between atoms: _72  and  _73
REMARK   30  A    between atoms: _75  and  _77
REMARK   31  A    between atoms: _77  and  _78
REMARK   32  A    between atoms: _81  and  _83
REMARK   33  A    between atoms: _83  and  _84
REMARK   34  A    between atoms: _83  and  _86
REMARK   35  A    between atoms: _86  and  _87
REMARK   36  A    between atoms: _90  and  _92
REMARK   37  A    between atoms: _92  and  _93
REMARK   38  A    between atoms: _92  and  _95
REMARK   39  A    between atoms: _95  and  _96
REMARK   40  A    between atoms: _99  and  _101
REMARK   41  A    between atoms: _101  and  _102
REMARK   42  A    between atoms: _101  and  _104
REMARK   43  A    between atoms: _104  and  _105
REMARK   44  A    between atoms: _108  and  _110
REMARK   45  A    between atoms: _110  and  _111
REMARK   46  A    between atoms: _110  and  _113
REMARK   47  A    between atoms: _116  and  _118
REMARK   48  A    between atoms: _118  and  _119
REMARK   49  A    between atoms: _118  and  _121
REMARK   50  A    between atoms: _121  and  _122
REMARK   51  A    between atoms: _122  and  _123
REMARK   52  A    between atoms: _123  and  _124
REMARK   53  A    between atoms: _124  and  _125
REMARK   54  A    between atoms: _129  and  _131
REMARK   55  A    between atoms: _131  and  _132
REMARK   56  A    between atoms: _131  and  _134
REMARK   57  A    between atoms: _134  and  _135
REMARK   58  A    between atoms: _135  and  _136
REMARK   59  A    between atoms: _138  and  _140
REMARK   60  A    between atoms: _140  and  _141
REMARK   61  A    between atoms: _140  and  _143
REMARK   62  A    between atoms: _143  and  _144
REMARK   63  A    between atoms: _147  and  _149
REMARK   64  A    between atoms: _149  and  _150
REMARK   65  A    between atoms: _152  and  _154
REMARK   66  A    between atoms: _154  and  _155
REMARK   67  A    between atoms: _157  and  _159
REMARK   68  A    between atoms: _159  and  _160
REMARK   69  A    between atoms: _159  and  _162
REMARK   70  A    between atoms: _162  and  _163
REMARK   71  A    between atoms: _166  and  _168
REMARK   72  A    between atoms: _168  and  _169
REMARK   73  A    between atoms: _171  and  _173
REMARK   74  A    between atoms: _173  and  _174
REMARK   75  A    between atoms: _176  and  _178
REMARK   76  A    between atoms: _178  and  _179
REMARK   77  A    between atoms: _178  and  _181
REMARK   78  A    between atoms: _181  and  _182
REMARK   79  A    between atoms: _188  and  _190
REMARK   80  A    between atoms: _190  and  _191
REMARK   81  A    between atoms: _190  and  _193
REMARK   82  A    between atoms: _193  and  _194
REMARK   83  A    between atoms: _197  and  _199
REMARK   84  A    between atoms: _199  and  _200
REMARK   85  A    between atoms: _199  and  _202
REMARK   86  A    between atoms: _205  and  _207
REMARK   87  A    between atoms: _207  and  _208
REMARK   88  A    between atoms: _207  and  _210
REMARK   89  A    between atoms: _210  and  _211
REMARK   90  A    between atoms: _215  and  _216
REMARK   91  A    between atoms: _221  and  _223
REMARK   92  A    between atoms: _223  and  _224
REMARK   93  A    between atoms: _223  and  _226
REMARK   94  A    between atoms: _226  and  _227
REMARK   95  A    between atoms: _231  and  _232
REMARK   96  A    between atoms: _237  and  _239
REMARK   97  A    between atoms: _239  and  _240
REMARK   98  A    between atoms: _239  and  _242
REMARK   99  A    between atoms: _245  and  _247
REMARK  100  A    between atoms: _247  and  _248
REMARK  101  A    between atoms: _247  and  _250
REMARK  102  A    between atoms: _250  and  _251
REMARK  103  A    between atoms: _256  and  _258
REMARK  104  A    between atoms: _258  and  _259
REMARK  105  A    between atoms: _258  and  _261
REMARK  106  A    between atoms: _261  and  _262
REMARK  107  A    between atoms: _265  and  _267
REMARK  108  A    between atoms: _267  and  _268
REMARK  109  A    between atoms: _267  and  _270
REMARK  110  A    between atoms: _270  and  _271
REMARK  111  A    between atoms: _274  and  _276
REMARK  112  A    between atoms: _276  and  _277
REMARK  113  A    between atoms: _279  and  _281
REMARK  114  A    between atoms: _281  and  _282
REMARK  115  A    between atoms: _281  and  _284
REMARK  116  A    between atoms: _284  and  _285
REMARK  117  A    between atoms: _285  and  _286
REMARK  118  A    between atoms: _286  and  _287
REMARK  119  A    between atoms: _296  and  _298
REMARK  120  A    between atoms: _298  and  _299
REMARK  121  A    between atoms: _298  and  _301
REMARK  122  A    between atoms: _301  and  _302
REMARK  123  A    between atoms: _307  and  _309
REMARK  124  A    between atoms: _309  and  _310
REMARK  125  A    between atoms: _309  and  _312
REMARK  126  A    between atoms: _312  and  _313
REMARK  127  A    between atoms: _313  and  _314
REMARK  128  A    between atoms: _314  and  _315
REMARK  129  A    between atoms: _324  and  _326
REMARK  130  A    between atoms: _326  and  _327
REMARK  131  A    between atoms: _326  and  _329
REMARK  132  A    between atoms: _329  and  _330
REMARK  133  A    between atoms: _333  and  _335
REMARK  134  A    between atoms: _335  and  _336
REMARK  135  A    between atoms: _335  and  _338
REMARK  136  A    between atoms: _338  and  _339
REMARK  137  A    between atoms: _342  and  _344
REMARK  138  A    between atoms: _344  and  _345
REMARK  139  A    between atoms: _344  and  _347
REMARK  140  A    between atoms: _347  and  _348
REMARK  141  A    between atoms: _351  and  _353
REMARK  142  A    between atoms: _353  and  _354
REMARK  143  A    between atoms: _353  and  _356
REMARK  144  A    between atoms: _356  and  _357
REMARK  145  A    between atoms: _360  and  _362
REMARK  146  A    between atoms: _362  and  _363
REMARK  147  A    between atoms: _365  and  _367
REMARK  148  A    between atoms: _367  and  _368
REMARK  149  A    between atoms: _371  and  _373
REMARK  150  A    between atoms: _373  and  _374
REMARK  151  A    between atoms: _373  and  _376
REMARK  152  A    between atoms: _376  and  _377
REMARK  153  A    between atoms: _380  and  _382
REMARK  154  A    between atoms: _382  and  _383
REMARK  155  A    between atoms: _382  and  _385
REMARK  156  A    between atoms: _385  and  _386
REMARK  157  A    between atoms: _389  and  _391
REMARK  158  A    between atoms: _391  and  _392
REMARK  159  A    between atoms: _391  and  _394
REMARK  160  A    between atoms: _394  and  _395
REMARK  161  A    between atoms: _398  and  _400
REMARK  162  A    between atoms: _400  and  _401
REMARK  163  A    between atoms: _400  and  _403
REMARK  164  A    between atoms: _406  and  _408
REMARK  165  A    between atoms: _408  and  _409
REMARK  166  A    between atoms: _408  and  _411
REMARK  167  A    between atoms: _411  and  _412
REMARK  168  A    between atoms: _415  and  _417
REMARK  169  A    between atoms: _417  and  _418
REMARK  170  A    between atoms: _417  and  _420
REMARK  171  A    between atoms: _420  and  _421
REMARK  172  A    between atoms: _421  and  _422
REMARK  173  A    between atoms: _422  and  _423
REMARK  174  A    between atoms: _423  and  _424
REMARK  175  A    between atoms: _428  and  _430
REMARK  176  A    between atoms: _430  and  _431
REMARK  177  A    between atoms: _430  and  _433
REMARK  178  A    between atoms: _433  and  _434
REMARK  179  A    between atoms: _434  and  _435
REMARK  180  A    between atoms: _437  and  _439
REMARK  181  A    between atoms: _439  and  _440
REMARK  182  A    between atoms: _439  and  _442
REMARK  183  A    between atoms: _442  and  _443
REMARK  184  A    between atoms: _446  and  _448
REMARK  185  A    between atoms: _448  and  _449
REMARK  186  A    between atoms: _451  and  _453
REMARK  187  A    between atoms: _453  and  _454
REMARK  188  A    between atoms: _456  and  _458
REMARK  189  A    between atoms: _458  and  _459
REMARK  190  A    between atoms: _458  and  _461
REMARK  191  A    between atoms: _461  and  _462
REMARK  192  A    between atoms: _465  and  _467
REMARK  193  A    between atoms: _467  and  _468
REMARK  194  A    between atoms: _470  and  _472
REMARK  195  A    between atoms: _472  and  _473
REMARK  196  A    between atoms: _475  and  _477
REMARK  197  A    between atoms: _477  and  _478
REMARK  198  A    between atoms: _477  and  _480
REMARK  199  A    between atoms: _480  and  _481
REMARK  200  A    between atoms: _487  and  _489
REMARK  201  A    between atoms: _489  and  _490
REMARK  202  A    between atoms: _489  and  _492
REMARK  203  A    between atoms: _492  and  _493
REMARK  204  A    between atoms: _496  and  _498
REMARK  205  A    between atoms: _498  and  _499
REMARK  206  A    between atoms: _498  and  _501
REMARK  207  A    between atoms: _504  and  _506
REMARK  208  A    between atoms: _506  and  _507
REMARK  209  A    between atoms: _506  and  _509
REMARK  210  A    between atoms: _509  and  _510
REMARK  211  A    between atoms: _513  and  _515
REMARK  212  A    between atoms: _515  and  _516
REMARK  213  A    between atoms: _515  and  _518
REMARK  214  A    between atoms: _518  and  _519
REMARK  215  A    between atoms: _523  and  _524
REMARK  216  A    between atoms: _529  and  _531
REMARK  217  A    between atoms: _531  and  _532
REMARK  218  A    between atoms: _531  and  _534
REMARK  219  A    between atoms: _537  and  _539
REMARK  220  A    between atoms: _539  and  _540
REMARK  221  A    between atoms: _539  and  _542
REMARK  222  A    between atoms: _542  and  _543
REMARK  223  A    between atoms: _548  and  _550
REMARK  224  A    between atoms: _550  and  _551
REMARK  225  A    between atoms: _550  and  _553
REMARK  226  A    between atoms: _553  and  _554
REMARK  227  A    between atoms: _557  and  _559
REMARK  228  A    between atoms: _559  and  _560
REMARK  229  A    between atoms: _559  and  _562
REMARK  230  A    between atoms: _562  and  _563
REMARK  231  A    between atoms: _566  and  _568
REMARK  232  A    between atoms: _568  and  _569
REMARK  233  A    between atoms: _571  and  _573
REMARK  234  A    between atoms: _573  and  _574
REMARK  235  A    between atoms: _573  and  _576
REMARK  236  A    between atoms: _576  and  _577
REMARK  237  A    between atoms: _577  and  _578
REMARK  238  A    between atoms: _578  and  _579
REMARK  239  A    between atoms: _588  and  _590
REMARK  240  A    between atoms: _590  and  _591
REMARK  241  A    between atoms: _590  and  _593
REMARK  242  A    between atoms: _593  and  _594
REMARK                            x       y       z     vdW  Elec       q    Type
REMARK                         _______ _______ _______ _____ _____    ______ ____
ROOT
ATOM      1  O   HOH     1       1.283  21.568  16.038  0.00  0.00    +0.000 OA
ENDROOT
TORSDOF 0
REMARK  Name = ../refined-set-2016/4zip/4zip_pocket.pdb
REMARK  242 active torsions:
REMARK  status: ('A' for Active; 'I' for Inactive)
REMARK    1  A    between atoms: _1  and  _3
REMARK    2  A    between atoms: _3  and  _4
REMARK    3  A    between atoms: _3  and  _6
REMARK    4  A    between atoms: _6  and  _7
REMARK    5  A    between atoms: _7  and  _8
REMARK    6  A    between atoms: _8  and  _9
REMARK    7  A    between atoms: _19  and  _20
REMARK    8  A    between atoms: _25  and  _27
REMARK    9  A    between atoms: _27  and  _28
REMARK   10  A    between atoms: _27  and  _30
REMARK   11  A    between atoms: _30  and  _31
REMARK   12  A    between atoms: _34  and  _36
REMARK   13  A    between atoms: _36  and  _37
REMARK   14  A    between atoms: _36  and  _39
REMARK   15  A    between atoms: _39  and  _40
REMARK   16  A    between atoms: _43  and  _45
REMARK   17  A    between atoms: _45  and  _46
REMARK   18  A    between atoms: _45  and  _48
REMARK   19  A    between atoms: _48  and  _49
REMARK   20  A    between atoms: _52  and  _54
REMARK   21  A    between atoms: _54  and  _55
REMARK   22  A    between atoms: _54  and  _57
REMARK   23  A    between atoms: _57  and  _58
REMARK   24  A    between atoms: _61  and  _63
REMARK   25  A    between atoms: _63  and  _64
REMARK   26  A    between atoms: _63  and  _66
REMARK   27  A    between atoms: _66  and  _67
REMARK   28  A    between atoms: _70  and  _72
REMARK   29  A    between atoms: _72  and  _73
REMARK   30  A    between atoms: _75  and  _77
REMARK   31  A    between atoms: _77  and  _78
REMARK   32  A    between atoms: _81  and  _83
REMARK   33  A    between atoms: _83  and  _84
REMARK   34  A    between atoms: _83  and  _86
REMARK   35  A    between atoms: _86  and  _87
REMARK   36  A    between atoms: _90  and  _92
REMARK   37  A    between atoms: _92  and  _93
REMARK   38  A    between atoms: _92  and  _95
REMARK   39  A    between atoms: _95  and  _96
REMARK   40  A    between atoms: _99  and  _101
REMARK   41  A    between atoms: _101  and  _102
REMARK   42  A    between atoms: _101  and  _104
REMARK   43  A    between atoms: _104  and  _105
REMARK   44  A    between atoms: _108  and  _110
REMARK   45  A    between atoms: _110  and  _111
REMARK   46  A    between atoms: _110  and  _113
REMARK   47  A    between atoms: _116  and  _118
REMARK   48  A    between atoms: _118  and  _119
REMARK   49  A    between atoms: _118  and  _121
REMARK   50  A    between atoms: _121  and  _122
REMARK   51  A    between atoms: _122  and  _123
REMARK   52  A    between atoms: _123  and  _124
REMARK   53  A    between atoms: _124  and  _125
REMARK   54  A    between atoms: _129  and  _131
REMARK   55  A    between atoms: _131  and  _132
REMARK   56  A    between atoms: _131  and  _134
REMARK   57  A    between atoms: _134  and  _135
REMARK   58  A    between atoms: _135  and  _136
REMARK   59  A    between atoms: _138  and  _140
REMARK   60  A    between atoms: _140  and  _141
REMARK   61  A    between atoms: _140  and  _143
REMARK   62  A    between atoms: _143  and  _144
REMARK   63  A    between atoms: _147  and  _149
REMARK   64  A    between atoms: _149  and  _150
REMARK   65  A    between atoms: _152  and  _154
REMARK   66  A    between atoms: _154  and  _155
REMARK   67  A    between atoms: _157  and  _159
REMARK   68  A    between atoms: _159  and  _160
REMARK   69  A    between atoms: _159  and  _162
REMARK   70  A    between atoms: _162  and  _163
REMARK   71  A    between atoms: _166  and  _168
REMARK   72  A    between atoms: _168  and  _169
REMARK   73  A    between atoms: _171  and  _173
REMARK   74  A    between atoms: _173  and  _174
REMARK   75  A    between atoms: _176  and  _178
REMARK   76  A    between atoms: _178  and  _179
REMARK   77  A    between atoms: _178  and  _181
REMARK   78  A    between atoms: _181  and  _182
REMARK   79  A    between atoms: _188  and  _190
REMARK   80  A    between atoms: _190  and  _191
REMARK   81  A    between atoms: _190  and  _193
REMARK   82  A    between atoms: _193  and  _194
REMARK   83  A    between atoms: _197  and  _199
REMARK   84  A    between atoms: _199  and  _200
REMARK   85  A    between atoms: _199  and  _202
REMARK   86  A    between atoms: _205  and  _207
REMARK   87  A    between atoms: _207  and  _208
REMARK   88  A    between atoms: _207  and  _210
REMARK   89  A    between atoms: _210  and  _211
REMARK   90  A    between atoms: _215  and  _216
REMARK   91  A    between atoms: _221  and  _223
REMARK   92  A    between atoms: _223  and  _224
REMARK   93  A    between atoms: _223  and  _226
REMARK   94  A    between atoms: _226  and  _227
REMARK   95  A    between atoms: _231  and  _232
REMARK   96  A    between atoms: _237  and  _239
REMARK   97  A    between atoms: _239  and  _240
REMARK   98  A    between atoms: _239  and  _242
REMARK   99  A    between atoms: _245  and  _247
REMARK  100  A    between atoms: _247  and  _248
REMARK  101  A    between atoms: _247  and  _250
REMARK  102  A    between atoms: _250  and  _251
REMARK  103  A    between atoms: _256  and  _258
REMARK  104  A    between atoms: _258  and  _259
REMARK  105  A    between atoms: _258  and  _261
REMARK  106  A    between atoms: _261  and  _262
REMARK  107  A    between atoms: _265  and  _267
REMARK  108  A    between atoms: _267  and  _268
REMARK  109  A    between atoms: _267  and  _270
REMARK  110  A    between atoms: _270  and  _271
REMARK  111  A    between atoms: _274  and  _276
REMARK  112  A    between atoms: _276  and  _277
REMARK  113  A    between atoms: _279  and  _281
REMARK  114  A    between atoms: _281  and  _282
REMARK  115  A    between atoms: _281  and  _284
REMARK  116  A    between atoms: _284  and  _285
REMARK  117  A    between atoms: _285  and  _286
REMARK  118  A    between atoms: _286  and  _287
REMARK  119  A    between atoms: _296  and  _298
REMARK  120  A    between atoms: _298  and  _299
REMARK  121  A    between atoms: _298  and  _301
REMARK  122  A    between atoms: _301  and  _302
REMARK  123  A    between atoms: _307  and  _309
REMARK  124  A    between atoms: _309  and  _310
REMARK  125  A    between atoms: _309  and  _312
REMARK  126  A    between atoms: _312  and  _313
REMARK  127  A    between atoms: _313  and  _314
REMARK  128  A    between atoms: _314  and  _315
REMARK  129  A    between atoms: _324  and  _326
REMARK  130  A    between atoms: _326  and  _327
REMARK  131  A    between atoms: _326  and  _329
REMARK  132  A    between atoms: _329  and  _330
REMARK  133  A    between atoms: _333  and  _335
REMARK  134  A    between atoms: _335  and  _336
REMARK  135  A    between atoms: _335  and  _338
REMARK  136  A    between atoms: _338  and  _339
REMARK  137  A    between atoms: _342  and  _344
REMARK  138  A    between atoms: _344  and  _345
REMARK  139  A    between atoms: _344  and  _347
REMARK  140  A    between atoms: _347  and  _348
REMARK  141  A    between atoms: _351  and  _353
REMARK  142  A    between atoms: _353  and  _354
REMARK  143  A    between atoms: _353  and  _356
REMARK  144  A    between atoms: _356  and  _357
REMARK  145  A    between atoms: _360  and  _362
REMARK  146  A    between atoms: _362  and  _363
REMARK  147  A    between atoms: _365  and  _367
REMARK  148  A    between atoms: _367  and  _368
REMARK  149  A    between atoms: _371  and  _373
REMARK  150  A    between atoms: _373  and  _374
REMARK  151  A    between atoms: _373  and  _376
REMARK  152  A    between atoms: _376  and  _377
REMARK  153  A    between atoms: _380  and  _382
REMARK  154  A    between atoms: _382  and  _383
REMARK  155  A    between atoms: _382  and  _385
REMARK  156  A    between atoms: _385  and  _386
REMARK  157  A    between atoms: _389  and  _391
REMARK  158  A    between atoms: _391  and  _392
REMARK  159  A    between atoms: _391  and  _394
REMARK  160  A    between atoms: _394  and  _395
REMARK  161  A    between atoms: _398  and  _400
REMARK  162  A    between atoms: _400  and  _401
REMARK  163  A    between atoms: _400  and  _403
REMARK  164  A    between atoms: _406  and  _408
REMARK  165  A    between atoms: _408  and  _409
REMARK  166  A    between atoms: _408  and  _411
REMARK  167  A    between atoms: _411  and  _412
REMARK  168  A    between atoms: _415  and  _417
REMARK  169  A    between atoms: _417  and  _418
REMARK  170  A    between atoms: _417  and  _420
REMARK  171  A    between atoms: _420  and  _421
REMARK  172  A    between atoms: _421  and  _422
REMARK  173  A    between atoms: _422  and  _423
REMARK  174  A    between atoms: _423  and  _424
REMARK  175  A    between atoms: _428  and  _430
REMARK  176  A    between atoms: _430  and  _431
REMARK  177  A    between atoms: _430  and  _433
REMARK  178  A    between atoms: _433  and  _434
REMARK  179  A    between atoms: _434  and  _435
REMARK  180  A    between atoms: _437  and  _439
REMARK  181  A    between atoms: _439  and  _440
REMARK  182  A    between atoms: _439  and  _442
REMARK  183  A    between atoms: _442  and  _443
REMARK  184  A    between atoms: _446  and  _448
REMARK  185  A    between atoms: _448  and  _449
REMARK  186  A    between atoms: _451  and  _453
REMARK  187  A    between atoms: _453  and  _454
REMARK  188  A    between atoms: _456  and  _458
REMARK  189  A    between atoms: _458  and  _459
REMARK  190  A    between atoms: _458  and  _461
REMARK  191  A    between atoms: _461  and  _462
REMARK  192  A    between atoms: _465  and  _467
REMARK  193  A    between atoms: _467  and  _468
REMARK  194  A    between atoms: _470  and  _472
REMARK  195  A    between atoms: _472  and  _473
REMARK  196  A    between atoms: _475  and  _477
REMARK  197  A    between atoms: _477  and  _478
REMARK  198  A    between atoms: _477  and  _480
REMARK  199  A    between atoms: _480  and  _481
REMARK  200  A    between atoms: _487  and  _489
REMARK  201  A    between atoms: _489  and  _490
REMARK  202  A    between atoms: _489  and  _492
REMARK  203  A    between atoms: _492  and  _493
REMARK  204  A    between atoms: _496  and  _498
REMARK  205  A    between atoms: _498  and  _499
REMARK  206  A    between atoms: _498  and  _501
REMARK  207  A    between atoms: _504  and  _506
REMARK  208  A    between atoms: _506  and  _507
REMARK  209  A    between atoms: _506  and  _509
REMARK  210  A    between atoms: _509  and  _510
REMARK  211  A    between atoms: _513  and  _515
REMARK  212  A    between atoms: _515  and  _516
REMARK  213  A    between atoms: _515  and  _518
REMARK  214  A    between atoms: _518  and  _519
REMARK  215  A    between atoms: _523  and  _524
REMARK  216  A    between atoms: _529  and  _531
REMARK  217  A    between atoms: _531  and  _532
REMARK  218  A    between atoms: _531  and  _534
REMARK  219  A    between atoms: _537  and  _539
REMARK  220  A    between atoms: _539  and  _540
REMARK  221  A    between atoms: _539  and  _542
REMARK  222  A    between atoms: _542  and  _543
REMARK  223  A    between atoms: _548  and  _550
REMARK  224  A    between atoms: _550  and  _551
REMARK  225  A    between atoms: _550  and  _553
REMARK  226  A    between atoms: _553  and  _554
REMARK  227  A    between atoms: _557  and  _559
REMARK  228  A    between atoms: _559  and  _560
REMARK  229  A    between atoms: _559  and  _562
REMARK  230  A    between atoms: _562  and  _563
REMARK  231  A    between atoms: _566  and  _568
REMARK  232  A    between atoms: _568  and  _569
REMARK  233  A    between atoms: _571  and  _573
REMARK  234  A    between atoms: _573  and  _574
REMARK  235  A    between atoms: _573  and  _576
REMARK  236  A    between atoms: _576  and  _577
REMARK  237  A    between atoms: _577  and  _578
REMARK  238  A    between atoms: _578  and  _579
REMARK  239  A    between atoms: _588  and  _590
REMARK  240  A    between atoms: _590  and  _591
REMARK  241  A    between atoms: _590  and  _593
REMARK  242  A    between atoms: _593  and  _594
REMARK                            x       y       z     vdW  Elec       q    Type
REMARK                         _______ _______ _______ _____ _____    ______ ____
ROOT
ATOM      1  O   HOH     1      25.427  26.367  15.952  0.00  0.00    +0.000 OA
ENDROOT
TORSDOF 0
REMARK  Name = ../refined-set-2016/4zip/4zip_pocket.pdb
REMARK  242 active torsions:
REMARK  status: ('A' for Active; 'I' for Inactive)
REMARK    1  A    between atoms: _1  and  _3
REMARK    2  A    between atoms: _3  and  _4
REMARK    3  A    between atoms: _3  and  _6
REMARK    4  A    between atoms: _6  and  _7
REMARK    5  A    between atoms: _7  and  _8
REMARK    6  A    between atoms: _8  and  _9
REMARK    7  A    between atoms: _19  and  _20
REMARK    8  A    between atoms: _25  and  _27
REMARK    9  A    between atoms: _27  and  _28
REMARK   10  A    between atoms: _27  and  _30
REMARK   11  A    between atoms: _30  and  _31
REMARK   12  A    between atoms: _34  and  _36
REMARK   13  A    between atoms: _36  and  _37
REMARK   14  A    between atoms: _36  and  _39
REMARK   15  A    between atoms: _39  and  _40
REMARK   16  A    between atoms: _43  and  _45
REMARK   17  A    between atoms: _45  and  _46
REMARK   18  A    between atoms: _45  and  _48
REMARK   19  A    between atoms: _48  and  _49
REMARK   20  A    between atoms: _52  and  _54
REMARK   21  A    between atoms: _54  and  _55
REMARK   22  A    between atoms: _54  and  _57
REMARK   23  A    between atoms: _57  and  _58
REMARK   24  A    between atoms: _61  and  _63
REMARK   25  A    between atoms: _63  and  _64
REMARK   26  A    between atoms: _63  and  _66
REMARK   27  A    between atoms: _66  and  _67
REMARK   28  A    between atoms: _70  and  _72
REMARK   29  A    between atoms: _72  and  _73
REMARK   30  A    between atoms: _75  and  _77
REMARK   31  A    between atoms: _77  and  _78
REMARK   32  A    between atoms: _81  and  _83
REMARK   33  A    between atoms: _83  and  _84
REMARK   34  A    between atoms: _83  and  _86
REMARK   35  A    between atoms: _86  and  _87
REMARK   36  A    between atoms: _90  and  _92
REMARK   37  A    between atoms: _92  and  _93
REMARK   38  A    between atoms: _92  and  _95
REMARK   39  A    between atoms: _95  and  _96
REMARK   40  A    between atoms: _99  and  _101
REMARK   41  A    between atoms: _101  and  _102
REMARK   42  A    between atoms: _101  and  _104
REMARK   43  A    between atoms: _104  and  _105
REMARK   44  A    between atoms: _108  and  _110
REMARK   45  A    between atoms: _110  and  _111
REMARK   46  A    between atoms: _110  and  _113
REMARK   47  A    between atoms: _116  and  _118
REMARK   48  A    between atoms: _118  and  _119
REMARK   49  A    between atoms: _118  and  _121
REMARK   50  A    between atoms: _121  and  _122
REMARK   51  A    between atoms: _122  and  _123
REMARK   52  A    between atoms: _123  and  _124
REMARK   53  A    between atoms: _124  and  _125
REMARK   54  A    between atoms: _129  and  _131
REMARK   55  A    between atoms: _131  and  _132
REMARK   56  A    between atoms: _131  and  _134
REMARK   57  A    between atoms: _134  and  _135
REMARK   58  A    between atoms: _135  and  _136
REMARK   59  A    between atoms: _138  and  _140
REMARK   60  A    between atoms: _140  and  _141
REMARK   61  A    between atoms: _140  and  _143
REMARK   62  A    between atoms: _143  and  _144
REMARK   63  A    between atoms: _147  and  _149
REMARK   64  A    between atoms: _149  and  _150
REMARK   65  A    between atoms: _152  and  _154
REMARK   66  A    between atoms: _154  and  _155
REMARK   67  A    between atoms: _157  and  _159
REMARK   68  A    between atoms: _159  and  _160
REMARK   69  A    between atoms: _159  and  _162
REMARK   70  A    between atoms: _162  and  _163
REMARK   71  A    between atoms: _166  and  _168
REMARK   72  A    between atoms: _168  and  _169
REMARK   73  A    between atoms: _171  and  _173
REMARK   74  A    between atoms: _173  and  _174
REMARK   75  A    between atoms: _176  and  _178
REMARK   76  A    between atoms: _178  and  _179
REMARK   77  A    between atoms: _178  and  _181
REMARK   78  A    between atoms: _181  and  _182
REMARK   79  A    between atoms: _188  and  _190
REMARK   80  A    between atoms: _190  and  _191
REMARK   81  A    between atoms: _190  and  _193
REMARK   82  A    between atoms: _193  and  _194
REMARK   83  A    between atoms: _197  and  _199
REMARK   84  A    between atoms: _199  and  _200
REMARK   85  A    between atoms: _199  and  _202
REMARK   86  A    between atoms: _205  and  _207
REMARK   87  A    between atoms: _207  and  _208
REMARK   88  A    between atoms: _207  and  _210
REMARK   89  A    between atoms: _210  and  _211
REMARK   90  A    between atoms: _215  and  _216
REMARK   91  A    between atoms: _221  and  _223
REMARK   92  A    between atoms: _223  and  _224
REMARK   93  A    between atoms: _223  and  _226
REMARK   94  A    between atoms: _226  and  _227
REMARK   95  A    between atoms: _231  and  _232
REMARK   96  A    between atoms: _237  and  _239
REMARK   97  A    between atoms: _239  and  _240
REMARK   98  A    between atoms: _239  and  _242
REMARK   99  A    between atoms: _245  and  _247
REMARK  100  A    between atoms: _247  and  _248
REMARK  101  A    between atoms: _247  and  _250
REMARK  102  A    between atoms: _250  and  _251
REMARK  103  A    between atoms: _256  and  _258
REMARK  104  A    between atoms: _258  and  _259
REMARK  105  A    between atoms: _258  and  _261
REMARK  106  A    between atoms: _261  and  _262
REMARK  107  A    between atoms: _265  and  _267
REMARK  108  A    between atoms: _267  and  _268
REMARK  109  A    between atoms: _267  and  _270
REMARK  110  A    between atoms: _270  and  _271
REMARK  111  A    between atoms: _274  and  _276
REMARK  112  A    between atoms: _276  and  _277
REMARK  113  A    between atoms: _279  and  _281
REMARK  114  A    between atoms: _281  and  _282
REMARK  115  A    between atoms: _281  and  _284
REMARK  116  A    between atoms: _284  and  _285
REMARK  117  A    between atoms: _285  and  _286
REMARK  118  A    between atoms: _286  and  _287
REMARK  119  A    between atoms: _296  and  _298
REMARK  120  A    between atoms: _298  and  _299
REMARK  121  A    between atoms: _298  and  _301
REMARK  122  A    between atoms: _301  and  _302
REMARK  123  A    between atoms: _307  and  _309
REMARK  124  A    between atoms: _309  and  _310
REMARK  125  A    between atoms: _309  and  _312
REMARK  126  A    between atoms: _312  and  _313
REMARK  127  A    between atoms: _313  and  _314
REMARK  128  A    between atoms: _314  and  _315
REMARK  129  A    between atoms: _324  and  _326
REMARK  130  A    between atoms: _326  and  _327
REMARK  131  A    between atoms: _326  and  _329
REMARK  132  A    between atoms: _329  and  _330
REMARK  133  A    between atoms: _333  and  _335
REMARK  134  A    between atoms: _335  and  _336
REMARK  135  A    between atoms: _335  and  _338
REMARK  136  A    between atoms: _338  and  _339
REMARK  137  A    between atoms: _342  and  _344
REMARK  138  A    between atoms: _344  and  _345
REMARK  139  A    between atoms: _344  and  _347
REMARK  140  A    between atoms: _347  and  _348
REMARK  141  A    between atoms: _351  and  _353
REMARK  142  A    between atoms: _353  and  _354
REMARK  143  A    between atoms: _353  and  _356
REMARK  144  A    between atoms: _356  and  _357
REMARK  145  A    between atoms: _360  and  _362
REMARK  146  A    between atoms: _362  and  _363
REMARK  147  A    between atoms: _365  and  _367
REMARK  148  A    between atoms: _367  and  _368
REMARK  149  A    between atoms: _371  and  _373
REMARK  150  A    between atoms: _373  and  _374
REMARK  151  A    between atoms: _373  and  _376
REMARK  152  A    between atoms: _376  and  _377
REMARK  153  A    between atoms: _380  and  _382
REMARK  154  A    between atoms: _382  and  _383
REMARK  155  A    between atoms: _382  and  _385
REMARK  156  A    between atoms: _385  and  _386
REMARK  157  A    between atoms: _389  and  _391
REMARK  158  A    between atoms: _391  and  _392
REMARK  159  A    between atoms: _391  and  _394
REMARK  160  A    between atoms: _394  and  _395
REMARK  161  A    between atoms: _398  and  _400
REMARK  162  A    between atoms: _400  and  _401
REMARK  163  A    between atoms: _400  and  _403
REMARK  164  A    between atoms: _406  and  _408
REMARK  165  A    between atoms: _408  and  _409
REMARK  166  A    between atoms: _408  and  _411
REMARK  167  A    between atoms: _411  and  _412
REMARK  168  A    between atoms: _415  and  _417
REMARK  169  A    between atoms: _417  and  _418
REMARK  170  A    between atoms: _417  and  _420
REMARK  171  A    between atoms: _420  and  _421
REMARK  172  A    between atoms: _421  and  _422
REMARK  173  A    between atoms: _422  and  _423
REMARK  174  A    between atoms: _423  and  _424
REMARK  175  A    between atoms: _428  and  _430
REMARK  176  A    between atoms: _430  and  _431
REMARK  177  A    between atoms: _430  and  _433
REMARK  178  A    between atoms: _433  and  _434
REMARK  179  A    between atoms: _434  and  _435
REMARK  180  A    between atoms: _437  and  _439
REMARK  181  A    between atoms: _439  and  _440
REMARK  182  A    between atoms: _439  and  _442
REMARK  183  A    between atoms: _442  and  _443
REMARK  184  A    between atoms: _446  and  _448
REMARK  185  A    between atoms: _448  and  _449
REMARK  186  A    between atoms: _451  and  _453
REMARK  187  A    between atoms: _453  and  _454
REMARK  188  A    between atoms: _456  and  _458
REMARK  189  A    between atoms: _458  and  _459
REMARK  190  A    between atoms: _458  and  _461
REMARK  191  A    between atoms: _461  and  _462
REMARK  192  A    between atoms: _465  and  _467
REMARK  193  A    between atoms: _467  and  _468
REMARK  194  A    between atoms: _470  and  _472
REMARK  195  A    between atoms: _472  and  _473
REMARK  196  A    between atoms: _475  and  _477
REMARK  197  A    between atoms: _477  and  _478
REMARK  198  A    between atoms: _477  and  _480
REMARK  199  A    between atoms: _480  and  _481
REMARK  200  A    between atoms: _487  and  _489
REMARK  201  A    between atoms: _489  and  _490
REMARK  202  A    between atoms: _489  and  _492
REMARK  203  A    between atoms: _492  and  _493
REMARK  204  A    between atoms: _496  and  _498
REMARK  205  A    between atoms: _498  and  _499
REMARK  206  A    between atoms: _498  and  _501
REMARK  207  A    between atoms: _504  and  _506
REMARK  208  A    between atoms: _506  and  _507
REMARK  209  A    between atoms: _506  and  _509
REMARK  210  A    between atoms: _509  and  _510
REMARK  211  A    between atoms: _513  and  _515
REMARK  212  A    between atoms: _515  and  _516
REMARK  213  A    between atoms: _515  and  _518
REMARK  214  A    between atoms: _518  and  _519
REMARK  215  A    between atoms: _523  and  _524
REMARK  216  A    between atoms: _529  and  _531
REMARK  217  A    between atoms: _531  and  _532
REMARK  218  A    between atoms: _531  and  _534
REMARK  219  A    between atoms: _537  and  _539
REMARK  220  A    between atoms: _539  and  _540
REMARK  221  A    between atoms: _539  and  _542
REMARK  222  A    between atoms: _542  and  _543
REMARK  223  A    between atoms: _548  and  _550
REMARK  224  A    between atoms: _550  and  _551
REMARK  225  A    between atoms: _550  and  _553
REMARK  226  A    between atoms: _553  and  _554
REMARK  227  A    between atoms: _557  and  _559
REMARK  228  A    between atoms: _559  and  _560
REMARK  229  A    between atoms: _559  and  _562
REMARK  230  A    between atoms: _562  and  _563
REMARK  231  A    between atoms: _566  and  _568
REMARK  232  A    between atoms: _568  and  _569
REMARK  233  A    between atoms: _571  and  _573
REMARK  234  A    between atoms: _573  and  _574
REMARK  235  A    between atoms: _573  and  _576
REMARK  236  A    between atoms: _576  and  _577
REMARK  237  A    between atoms: _577  and  _578
REMARK  238  A    between atoms: _578  and  _579
REMARK  239  A    between atoms: _588  and  _590
REMARK  240  A    between atoms: _590  and  _591
REMARK  241  A    between atoms: _590  and  _593
REMARK  242  A    between atoms: _593  and  _594
REMARK                            x       y       z     vdW  Elec       q    Type
REMARK                         _______ _______ _______ _____ _____    ______ ____
ROOT
ATOM      1  O   HOH     1      25.274  33.874  11.331  0.00  0.00    +0.000 OA
ENDROOT
TORSDOF 0
REMARK  Name = ../refined-set-2016/4zip/4zip_pocket.pdb
REMARK  242 active torsions:
REMARK  status: ('A' for Active; 'I' for Inactive)
REMARK    1  A    between atoms: _1  and  _3
REMARK    2  A    between atoms: _3  and  _4
REMARK    3  A    between atoms: _3  and  _6
REMARK    4  A    between atoms: _6  and  _7
REMARK    5  A    between atoms: _7  and  _8
REMARK    6  A    between atoms: _8  and  _9
REMARK    7  A    between atoms: _19  and  _20
REMARK    8  A    between atoms: _25  and  _27
REMARK    9  A    between atoms: _27  and  _28
REMARK   10  A    between atoms: _27  and  _30
REMARK   11  A    between atoms: _30  and  _31
REMARK   12  A    between atoms: _34  and  _36
REMARK   13  A    between atoms: _36  and  _37
REMARK   14  A    between atoms: _36  and  _39
REMARK   15  A    between atoms: _39  and  _40
REMARK   16  A    between atoms: _43  and  _45
REMARK   17  A    between atoms: _45  and  _46
REMARK   18  A    between atoms: _45  and  _48
REMARK   19  A    between atoms: _48  and  _49
REMARK   20  A    between atoms: _52  and  _54
REMARK   21  A    between atoms: _54  and  _55
REMARK   22  A    between atoms: _54  and  _57
REMARK   23  A    between atoms: _57  and  _58
REMARK   24  A    between atoms: _61  and  _63
REMARK   25  A    between atoms: _63  and  _64
REMARK   26  A    between atoms: _63  and  _66
REMARK   27  A    between atoms: _66  and  _67
REMARK   28  A    between atoms: _70  and  _72
REMARK   29  A    between atoms: _72  and  _73
REMARK   30  A    between atoms: _75  and  _77
REMARK   31  A    between atoms: _77  and  _78
REMARK   32  A    between atoms: _81  and  _83
REMARK   33  A    between atoms: _83  and  _84
REMARK   34  A    between atoms: _83  and  _86
REMARK   35  A    between atoms: _86  and  _87
REMARK   36  A    between atoms: _90  and  _92
REMARK   37  A    between atoms: _92  and  _93
REMARK   38  A    between atoms: _92  and  _95
REMARK   39  A    between atoms: _95  and  _96
REMARK   40  A    between atoms: _99  and  _101
REMARK   41  A    between atoms: _101  and  _102
REMARK   42  A    between atoms: _101  and  _104
REMARK   43  A    between atoms: _104  and  _105
REMARK   44  A    between atoms: _108  and  _110
REMARK   45  A    between atoms: _110  and  _111
REMARK   46  A    between atoms: _110  and  _113
REMARK   47  A    between atoms: _116  and  _118
REMARK   48  A    between atoms: _118  and  _119
REMARK   49  A    between atoms: _118  and  _121
REMARK   50  A    between atoms: _121  and  _122
REMARK   51  A    between atoms: _122  and  _123
REMARK   52  A    between atoms: _123  and  _124
REMARK   53  A    between atoms: _124  and  _125
REMARK   54  A    between atoms: _129  and  _131
REMARK   55  A    between atoms: _131  and  _132
REMARK   56  A    between atoms: _131  and  _134
REMARK   57  A    between atoms: _134  and  _135
REMARK   58  A    between atoms: _135  and  _136
REMARK   59  A    between atoms: _138  and  _140
REMARK   60  A    between atoms: _140  and  _141
REMARK   61  A    between atoms: _140  and  _143
REMARK   62  A    between atoms: _143  and  _144
REMARK   63  A    between atoms: _147  and  _149
REMARK   64  A    between atoms: _149  and  _150
REMARK   65  A    between atoms: _152  and  _154
REMARK   66  A    between atoms: _154  and  _155
REMARK   67  A    between atoms: _157  and  _159
REMARK   68  A    between atoms: _159  and  _160
REMARK   69  A    between atoms: _159  and  _162
REMARK   70  A    between atoms: _162  and  _163
REMARK   71  A    between atoms: _166  and  _168
REMARK   72  A    between atoms: _168  and  _169
REMARK   73  A    between atoms: _171  and  _173
REMARK   74  A    between atoms: _173  and  _174
REMARK   75  A    between atoms: _176  and  _178
REMARK   76  A    between atoms: _178  and  _179
REMARK   77  A    between atoms: _178  and  _181
REMARK   78  A    between atoms: _181  and  _182
REMARK   79  A    between atoms: _188  and  _190
REMARK   80  A    between atoms: _190  and  _191
REMARK   81  A    between atoms: _190  and  _193
REMARK   82  A    between atoms: _193  and  _194
REMARK   83  A    between atoms: _197  and  _199
REMARK   84  A    between atoms: _199  and  _200
REMARK   85  A    between atoms: _199  and  _202
REMARK   86  A    between atoms: _205  and  _207
REMARK   87  A    between atoms: _207  and  _208
REMARK   88  A    between atoms: _207  and  _210
REMARK   89  A    between atoms: _210  and  _211
REMARK   90  A    between atoms: _215  and  _216
REMARK   91  A    between atoms: _221  and  _223
REMARK   92  A    between atoms: _223  and  _224
REMARK   93  A    between atoms: _223  and  _226
REMARK   94  A    between atoms: _226  and  _227
REMARK   95  A    between atoms: _231  and  _232
REMARK   96  A    between atoms: _237  and  _239
REMARK   97  A    between atoms: _239  and  _240
REMARK   98  A    between atoms: _239  and  _242
REMARK   99  A    between atoms: _245  and  _247
REMARK  100  A    between atoms: _247  and  _248
REMARK  101  A    between atoms: _247  and  _250
REMARK  102  A    between atoms: _250  and  _251
REMARK  103  A    between atoms: _256  and  _258
REMARK  104  A    between atoms: _258  and  _259
REMARK  105  A    between atoms: _258  and  _261
REMARK  106  A    between atoms: _261  and  _262
REMARK  107  A    between atoms: _265  and  _267
REMARK  108  A    between atoms: _267  and  _268
REMARK  109  A    between atoms: _267  and  _270
REMARK  110  A    between atoms: _270  and  _271
REMARK  111  A    between atoms: _274  and  _276
REMARK  112  A    between atoms: _276  and  _277
REMARK  113  A    between atoms: _279  and  _281
REMARK  114  A    between atoms: _281  and  _282
REMARK  115  A    between atoms: _281  and  _284
REMARK  116  A    between atoms: _284  and  _285
REMARK  117  A    between atoms: _285  and  _286
REMARK  118  A    between atoms: _286  and  _287
REMARK  119  A    between atoms: _296  and  _298
REMARK  120  A    between atoms: _298  and  _299
REMARK  121  A    between atoms: _298  and  _301
REMARK  122  A    between atoms: _301  and  _302
REMARK  123  A    between atoms: _307  and  _309
REMARK  124  A    between atoms: _309  and  _310
REMARK  125  A    between atoms: _309  and  _312
REMARK  126  A    between atoms: _312  and  _313
REMARK  127  A    between atoms: _313  and  _314
REMARK  128  A    between atoms: _314  and  _315
REMARK  129  A    between atoms: _324  and  _326
REMARK  130  A    between atoms: _326  and  _327
REMARK  131  A    between atoms: _326  and  _329
REMARK  132  A    between atoms: _329  and  _330
REMARK  133  A    between atoms: _333  and  _335
REMARK  134  A    between atoms: _335  and  _336
REMARK  135  A    between atoms: _335  and  _338
REMARK  136  A    between atoms: _338  and  _339
REMARK  137  A    between atoms: _342  and  _344
REMARK  138  A    between atoms: _344  and  _345
REMARK  139  A    between atoms: _344  and  _347
REMARK  140  A    between atoms: _347  and  _348
REMARK  141  A    between atoms: _351  and  _353
REMARK  142  A    between atoms: _353  and  _354
REMARK  143  A    between atoms: _353  and  _356
REMARK  144  A    between atoms: _356  and  _357
REMARK  145  A    between atoms: _360  and  _362
REMARK  146  A    between atoms: _362  and  _363
REMARK  147  A    between atoms: _365  and  _367
REMARK  148  A    between atoms: _367  and  _368
REMARK  149  A    between atoms: _371  and  _373
REMARK  150  A    between atoms: _373  and  _374
REMARK  151  A    between atoms: _373  and  _376
REMARK  152  A    between atoms: _376  and  _377
REMARK  153  A    between atoms: _380  and  _382
REMARK  154  A    between atoms: _382  and  _383
REMARK  155  A    between atoms: _382  and  _385
REMARK  156  A    between atoms: _385  and  _386
REMARK  157  A    between atoms: _389  and  _391
REMARK  158  A    between atoms: _391  and  _392
REMARK  159  A    between atoms: _391  and  _394
REMARK  160  A    between atoms: _394  and  _395
REMARK  161  A    between atoms: _398  and  _400
REMARK  162  A    between atoms: _400  and  _401
REMARK  163  A    between atoms: _400  and  _403
REMARK  164  A    between atoms: _406  and  _408
REMARK  165  A    between atoms: _408  and  _409
REMARK  166  A    between atoms: _408  and  _411
REMARK  167  A    between atoms: _411  and  _412
REMARK  168  A    between atoms: _415  and  _417
REMARK  169  A    between atoms: _417  and  _418
REMARK  170  A    between atoms: _417  and  _420
REMARK  171  A    between atoms: _420  and  _421
REMARK  172  A    between atoms: _421  and  _422
REMARK  173  A    between atoms: _422  and  _423
REMARK  174  A    between atoms: _423  and  _424
REMARK  175  A    between atoms: _428  and  _430
REMARK  176  A    between atoms: _430  and  _431
REMARK  177  A    between atoms: _430  and  _433
REMARK  178  A    between atoms: _433  and  _434
REMARK  179  A    between atoms: _434  and  _435
REMARK  180  A    between atoms: _437  and  _439
REMARK  181  A    between atoms: _439  and  _440
REMARK  182  A    between atoms: _439  and  _442
REMARK  183  A    between atoms: _442  and  _443
REMARK  184  A    between atoms: _446  and  _448
REMARK  185  A    between atoms: _448  and  _449
REMARK  186  A    between atoms: _451  and  _453
REMARK  187  A    between atoms: _453  and  _454
REMARK  188  A    between atoms: _456  and  _458
REMARK  189  A    between atoms: _458  and  _459
REMARK  190  A    between atoms: _458  and  _461
REMARK  191  A    between atoms: _461  and  _462
REMARK  192  A    between atoms: _465  and  _467
REMARK  193  A    between atoms: _467  and  _468
REMARK  194  A    between atoms: _470  and  _472
REMARK  195  A    between atoms: _472  and  _473
REMARK  196  A    between atoms: _475  and  _477
REMARK  197  A    between atoms: _477  and  _478
REMARK  198  A    between atoms: _477  and  _480
REMARK  199  A    between atoms: _480  and  _481
REMARK  200  A    between atoms: _487  and  _489
REMARK  201  A    between atoms: _489  and  _490
REMARK  202  A    between atoms: _489  and  _492
REMARK  203  A    between atoms: _492  and  _493
REMARK  204  A    between atoms: _496  and  _498
REMARK  205  A    between atoms: _498  and  _499
REMARK  206  A    between atoms: _498  and  _501
REMARK  207  A    between atoms: _504  and  _506
REMARK  208  A    between atoms: _506  and  _507
REMARK  209  A    between atoms: _506  and  _509
REMARK  210  A    between atoms: _509  and  _510
REMARK  211  A    between atoms: _513  and  _515
REMARK  212  A    between atoms: _515  and  _516
REMARK  213  A    between atoms: _515  and  _518
REMARK  214  A    between atoms: _518  and  _519
REMARK  215  A    between atoms: _523  and  _524
REMARK  216  A    between atoms: _529  and  _531
REMARK  217  A    between atoms: _531  and  _532
REMARK  218  A    between atoms: _531  and  _534
REMARK  219  A    between atoms: _537  and  _539
REMARK  220  A    between atoms: _539  and  _540
REMARK  221  A    between atoms: _539  and  _542
REMARK  222  A    between atoms: _542  and  _543
REMARK  223  A    between atoms: _548  and  _550
REMARK  224  A    between atoms: _550  and  _551
REMARK  225  A    between atoms: _550  and  _553
REMARK  226  A    between atoms: _553  and  _554
REMARK  227  A    between atoms: _557  and  _559
REMARK  228  A    between atoms: _559  and  _560
REMARK  229  A    between atoms: _559  and  _562
REMARK  230  A    between atoms: _562  and  _563
REMARK  231  A    between atoms: _566  and  _568
REMARK  232  A    between atoms: _568  and  _569
REMARK  233  A    between atoms: _571  and  _573
REMARK  234  A    between atoms: _573  and  _574
REMARK  235  A    between atoms: _573  and  _576
REMARK  236  A    between atoms: _576  and  _577
REMARK  237  A    between atoms: _577  and  _578
REMARK  238  A    between atoms: _578  and  _579
REMARK  239  A    between atoms: _588  and  _590
REMARK  240  A    between atoms: _590  and  _591
REMARK  241  A    between atoms: _590  and  _593
REMARK  242  A    between atoms: _593  and  _594
REMARK                            x       y       z     vdW  Elec       q    Type
REMARK                         _______ _______ _______ _____ _____    ______ ____
ROOT
ATOM      1  O   HOH     1      26.555  24.299  18.144  0.00  0.00    +0.000 OA
ENDROOT
TORSDOF 0
REMARK  Name = ../refined-set-2016/4zip/4zip_pocket.pdb
REMARK  242 active torsions:
REMARK  status: ('A' for Active; 'I' for Inactive)
REMARK    1  A    between atoms: _1  and  _3
REMARK    2  A    between atoms: _3  and  _4
REMARK    3  A    between atoms: _3  and  _6
REMARK    4  A    between atoms: _6  and  _7
REMARK    5  A    between atoms: _7  and  _8
REMARK    6  A    between atoms: _8  and  _9
REMARK    7  A    between atoms: _19  and  _20
REMARK    8  A    between atoms: _25  and  _27
REMARK    9  A    between atoms: _27  and  _28
REMARK   10  A    between atoms: _27  and  _30
REMARK   11  A    between atoms: _30  and  _31
REMARK   12  A    between atoms: _34  and  _36
REMARK   13  A    between atoms: _36  and  _37
REMARK   14  A    between atoms: _36  and  _39
REMARK   15  A    between atoms: _39  and  _40
REMARK   16  A    between atoms: _43  and  _45
REMARK   17  A    between atoms: _45  and  _46
REMARK   18  A    between atoms: _45  and  _48
REMARK   19  A    between atoms: _48  and  _49
REMARK   20  A    between atoms: _52  and  _54
REMARK   21  A    between atoms: _54  and  _55
REMARK   22  A    between atoms: _54  and  _57
REMARK   23  A    between atoms: _57  and  _58
REMARK   24  A    between atoms: _61  and  _63
REMARK   25  A    between atoms: _63  and  _64
REMARK   26  A    between atoms: _63  and  _66
REMARK   27  A    between atoms: _66  and  _67
REMARK   28  A    between atoms: _70  and  _72
REMARK   29  A    between atoms: _72  and  _73
REMARK   30  A    between atoms: _75  and  _77
REMARK   31  A    between atoms: _77  and  _78
REMARK   32  A    between atoms: _81  and  _83
REMARK   33  A    between atoms: _83  and  _84
REMARK   34  A    between atoms: _83  and  _86
REMARK   35  A    between atoms: _86  and  _87
REMARK   36  A    between atoms: _90  and  _92
REMARK   37  A    between atoms: _92  and  _93
REMARK   38  A    between atoms: _92  and  _95
REMARK   39  A    between atoms: _95  and  _96
REMARK   40  A    between atoms: _99  and  _101
REMARK   41  A    between atoms: _101  and  _102
REMARK   42  A    between atoms: _101  and  _104
REMARK   43  A    between atoms: _104  and  _105
REMARK   44  A    between atoms: _108  and  _110
REMARK   45  A    between atoms: _110  and  _111
REMARK   46  A    between atoms: _110  and  _113
REMARK   47  A    between atoms: _116  and  _118
REMARK   48  A    between atoms: _118  and  _119
REMARK   49  A    between atoms: _118  and  _121
REMARK   50  A    between atoms: _121  and  _122
REMARK   51  A    between atoms: _122  and  _123
REMARK   52  A    between atoms: _123  and  _124
REMARK   53  A    between atoms: _124  and  _125
REMARK   54  A    between atoms: _129  and  _131
REMARK   55  A    between atoms: _131  and  _132
REMARK   56  A    between atoms: _131  and  _134
REMARK   57  A    between atoms: _134  and  _135
REMARK   58  A    between atoms: _135  and  _136
REMARK   59  A    between atoms: _138  and  _140
REMARK   60  A    between atoms: _140  and  _141
REMARK   61  A    between atoms: _140  and  _143
REMARK   62  A    between atoms: _143  and  _144
REMARK   63  A    between atoms: _147  and  _149
REMARK   64  A    between atoms: _149  and  _150
REMARK   65  A    between atoms: _152  and  _154
REMARK   66  A    between atoms: _154  and  _155
REMARK   67  A    between atoms: _157  and  _159
REMARK   68  A    between atoms: _159  and  _160
REMARK   69  A    between atoms: _159  and  _162
REMARK   70  A    between atoms: _162  and  _163
REMARK   71  A    between atoms: _166  and  _168
REMARK   72  A    between atoms: _168  and  _169
REMARK   73  A    between atoms: _171  and  _173
REMARK   74  A    between atoms: _173  and  _174
REMARK   75  A    between atoms: _176  and  _178
REMARK   76  A    between atoms: _178  and  _179
REMARK   77  A    between atoms: _178  and  _181
REMARK   78  A    between atoms: _181  and  _182
REMARK   79  A    between atoms: _188  and  _190
REMARK   80  A    between atoms: _190  and  _191
REMARK   81  A    between atoms: _190  and  _193
REMARK   82  A    between atoms: _193  and  _194
REMARK   83  A    between atoms: _197  and  _199
REMARK   84  A    between atoms: _199  and  _200
REMARK   85  A    between atoms: _199  and  _202
REMARK   86  A    between atoms: _205  and  _207
REMARK   87  A    between atoms: _207  and  _208
REMARK   88  A    between atoms: _207  and  _210
REMARK   89  A    between atoms: _210  and  _211
REMARK   90  A    between atoms: _215  and  _216
REMARK   91  A    between atoms: _221  and  _223
REMARK   92  A    between atoms: _223  and  _224
REMARK   93  A    between atoms: _223  and  _226
REMARK   94  A    between atoms: _226  and  _227
REMARK   95  A    between atoms: _231  and  _232
REMARK   96  A    between atoms: _237  and  _239
REMARK   97  A    between atoms: _239  and  _240
REMARK   98  A    between atoms: _239  and  _242
REMARK   99  A    between atoms: _245  and  _247
REMARK  100  A    between atoms: _247  and  _248
REMARK  101  A    between atoms: _247  and  _250
REMARK  102  A    between atoms: _250  and  _251
REMARK  103  A    between atoms: _256  and  _258
REMARK  104  A    between atoms: _258  and  _259
REMARK  105  A    between atoms: _258  and  _261
REMARK  106  A    between atoms: _261  and  _262
REMARK  107  A    between atoms: _265  and  _267
REMARK  108  A    between atoms: _267  and  _268
REMARK  109  A    between atoms: _267  and  _270
REMARK  110  A    between atoms: _270  and  _271
REMARK  111  A    between atoms: _274  and  _276
REMARK  112  A    between atoms: _276  and  _277
REMARK  113  A    between atoms: _279  and  _281
REMARK  114  A    between atoms: _281  and  _282
REMARK  115  A    between atoms: _281  and  _284
REMARK  116  A    between atoms: _284  and  _285
REMARK  117  A    between atoms: _285  and  _286
REMARK  118  A    between atoms: _286  and  _287
REMARK  119  A    between atoms: _296  and  _298
REMARK  120  A    between atoms: _298  and  _299
REMARK  121  A    between atoms: _298  and  _301
REMARK  122  A    between atoms: _301  and  _302
REMARK  123  A    between atoms: _307  and  _309
REMARK  124  A    between atoms: _309  and  _310
REMARK  125  A    between atoms: _309  and  _312
REMARK  126  A    between atoms: _312  and  _313
REMARK  127  A    between atoms: _313  and  _314
REMARK  128  A    between atoms: _314  and  _315
REMARK  129  A    between atoms: _324  and  _326
REMARK  130  A    between atoms: _326  and  _327
REMARK  131  A    between atoms: _326  and  _329
REMARK  132  A    between atoms: _329  and  _330
REMARK  133  A    between atoms: _333  and  _335
REMARK  134  A    between atoms: _335  and  _336
REMARK  135  A    between atoms: _335  and  _338
REMARK  136  A    between atoms: _338  and  _339
REMARK  137  A    between atoms: _342  and  _344
REMARK  138  A    between atoms: _344  and  _345
REMARK  139  A    between atoms: _344  and  _347
REMARK  140  A    between atoms: _347  and  _348
REMARK  141  A    between atoms: _351  and  _353
REMARK  142  A    between atoms: _353  and  _354
REMARK  143  A    between atoms: _353  and  _356
REMARK  144  A    between atoms: _356  and  _357
REMARK  145  A    between atoms: _360  and  _362
REMARK  146  A    between atoms: _362  and  _363
REMARK  147  A    between atoms: _365  and  _367
REMARK  148  A    between atoms: _367  and  _368
REMARK  149  A    between atoms: _371  and  _373
REMARK  150  A    between atoms: _373  and  _374
REMARK  151  A    between atoms: _373  and  _376
REMARK  152  A    between atoms: _376  and  _377
REMARK  153  A    between atoms: _380  and  _382
REMARK  154  A    between atoms: _382  and  _383
REMARK  155  A    between atoms: _382  and  _385
REMARK  156  A    between atoms: _385  and  _386
REMARK  157  A    between atoms: _389  and  _391
REMARK  158  A    between atoms: _391  and  _392
REMARK  159  A    between atoms: _391  and  _394
REMARK  160  A    between atoms: _394  and  _395
REMARK  161  A    between atoms: _398  and  _400
REMARK  162  A    between atoms: _400  and  _401
REMARK  163  A    between atoms: _400  and  _403
REMARK  164  A    between atoms: _406  and  _408
REMARK  165  A    between atoms: _408  and  _409
REMARK  166  A    between atoms: _408  and  _411
REMARK  167  A    between atoms: _411  and  _412
REMARK  168  A    between atoms: _415  and  _417
REMARK  169  A    between atoms: _417  and  _418
REMARK  170  A    between atoms: _417  and  _420
REMARK  171  A    between atoms: _420  and  _421
REMARK  172  A    between atoms: _421  and  _422
REMARK  173  A    between atoms: _422  and  _423
REMARK  174  A    between atoms: _423  and  _424
REMARK  175  A    between atoms: _428  and  _430
REMARK  176  A    between atoms: _430  and  _431
REMARK  177  A    between atoms: _430  and  _433
REMARK  178  A    between atoms: _433  and  _434
REMARK  179  A    between atoms: _434  and  _435
REMARK  180  A    between atoms: _437  and  _439
REMARK  181  A    between atoms: _439  and  _440
REMARK  182  A    between atoms: _439  and  _442
REMARK  183  A    between atoms: _442  and  _443
REMARK  184  A    between atoms: _446  and  _448
REMARK  185  A    between atoms: _448  and  _449
REMARK  186  A    between atoms: _451  and  _453
REMARK  187  A    between atoms: _453  and  _454
REMARK  188  A    between atoms: _456  and  _458
REMARK  189  A    between atoms: _458  and  _459
REMARK  190  A    between atoms: _458  and  _461
REMARK  191  A    between atoms: _461  and  _462
REMARK  192  A    between atoms: _465  and  _467
REMARK  193  A    between atoms: _467  and  _468
REMARK  194  A    between atoms: _470  and  _472
REMARK  195  A    between atoms: _472  and  _473
REMARK  196  A    between atoms: _475  and  _477
REMARK  197  A    between atoms: _477  and  _478
REMARK  198  A    between atoms: _477  and  _480
REMARK  199  A    between atoms: _480  and  _481
REMARK  200  A    between atoms: _487  and  _489
REMARK  201  A    between atoms: _489  and  _490
REMARK  202  A    between atoms: _489  and  _492
REMARK  203  A    between atoms: _492  and  _493
REMARK  204  A    between atoms: _496  and  _498
REMARK  205  A    between atoms: _498  and  _499
REMARK  206  A    between atoms: _498  and  _501
REMARK  207  A    between atoms: _504  and  _506
REMARK  208  A    between atoms: _506  and  _507
REMARK  209  A    between atoms: _506  and  _509
REMARK  210  A    between atoms: _509  and  _510
REMARK  211  A    between atoms: _513  and  _515
REMARK  212  A    between atoms: _515  and  _516
REMARK  213  A    between atoms: _515  and  _518
REMARK  214  A    between atoms: _518  and  _519
REMARK  215  A    between atoms: _523  and  _524
REMARK  216  A    between atoms: _529  and  _531
REMARK  217  A    between atoms: _531  and  _532
REMARK  218  A    between atoms: _531  and  _534
REMARK  219  A    between atoms: _537  and  _539
REMARK  220  A    between atoms: _539  and  _540
REMARK  221  A    between atoms: _539  and  _542
REMARK  222  A    between atoms: _542  and  _543
REMARK  223  A    between atoms: _548  and  _550
REMARK  224  A    between atoms: _550  and  _551
REMARK  225  A    between atoms: _550  and  _553
REMARK  226  A    between atoms: _553  and  _554
REMARK  227  A    between atoms: _557  and  _559
REMARK  228  A    between atoms: _559  and  _560
REMARK  229  A    between atoms: _559  and  _562
REMARK  230  A    between atoms: _562  and  _563
REMARK  231  A    between atoms: _566  and  _568
REMARK  232  A    between atoms: _568  and  _569
REMARK  233  A    between atoms: _571  and  _573
REMARK  234  A    between atoms: _573  and  _574
REMARK  235  A    between atoms: _573  and  _576
REMARK  236  A    between atoms: _576  and  _577
REMARK  237  A    between atoms: _577  and  _578
REMARK  238  A    between atoms: _578  and  _579
REMARK  239  A    between atoms: _588  and  _590
REMARK  240  A    between atoms: _590  and  _591
REMARK  241  A    between atoms: _590  and  _593
REMARK  242  A    between atoms: _593  and  _594
REMARK                            x       y       z     vdW  Elec       q    Type
REMARK                         _______ _______ _______ _____ _____    ______ ____
ROOT
ATOM      1  O   HOH     1       9.114  15.376  18.920  0.00  0.00    +0.000 OA
ENDROOT
TORSDOF 0
REMARK  Name = ../refined-set-2016/4zip/4zip_pocket.pdb
REMARK  242 active torsions:
REMARK  status: ('A' for Active; 'I' for Inactive)
REMARK    1  A    between atoms: _1  and  _3
REMARK    2  A    between atoms: _3  and  _4
REMARK    3  A    between atoms: _3  and  _6
REMARK    4  A    between atoms: _6  and  _7
REMARK    5  A    between atoms: _7  and  _8
REMARK    6  A    between atoms: _8  and  _9
REMARK    7  A    between atoms: _19  and  _20
REMARK    8  A    between atoms: _25  and  _27
REMARK    9  A    between atoms: _27  and  _28
REMARK   10  A    between atoms: _27  and  _30
REMARK   11  A    between atoms: _30  and  _31
REMARK   12  A    between atoms: _34  and  _36
REMARK   13  A    between atoms: _36  and  _37
REMARK   14  A    between atoms: _36  and  _39
REMARK   15  A    between atoms: _39  and  _40
REMARK   16  A    between atoms: _43  and  _45
REMARK   17  A    between atoms: _45  and  _46
REMARK   18  A    between atoms: _45  and  _48
REMARK   19  A    between atoms: _48  and  _49
REMARK   20  A    between atoms: _52  and  _54
REMARK   21  A    between atoms: _54  and  _55
REMARK   22  A    between atoms: _54  and  _57
REMARK   23  A    between atoms: _57  and  _58
REMARK   24  A    between atoms: _61  and  _63
REMARK   25  A    between atoms: _63  and  _64
REMARK   26  A    between atoms: _63  and  _66
REMARK   27  A    between atoms: _66  and  _67
REMARK   28  A    between atoms: _70  and  _72
REMARK   29  A    between atoms: _72  and  _73
REMARK   30  A    between atoms: _75  and  _77
REMARK   31  A    between atoms: _77  and  _78
REMARK   32  A    between atoms: _81  and  _83
REMARK   33  A    between atoms: _83  and  _84
REMARK   34  A    between atoms: _83  and  _86
REMARK   35  A    between atoms: _86  and  _87
REMARK   36  A    between atoms: _90  and  _92
REMARK   37  A    between atoms: _92  and  _93
REMARK   38  A    between atoms: _92  and  _95
REMARK   39  A    between atoms: _95  and  _96
REMARK   40  A    between atoms: _99  and  _101
REMARK   41  A    between atoms: _101  and  _102
REMARK   42  A    between atoms: _101  and  _104
REMARK   43  A    between atoms: _104  and  _105
REMARK   44  A    between atoms: _108  and  _110
REMARK   45  A    between atoms: _110  and  _111
REMARK   46  A    between atoms: _110  and  _113
REMARK   47  A    between atoms: _116  and  _118
REMARK   48  A    between atoms: _118  and  _119
REMARK   49  A    between atoms: _118  and  _121
REMARK   50  A    between atoms: _121  and  _122
REMARK   51  A    between atoms: _122  and  _123
REMARK   52  A    between atoms: _123  and  _124
REMARK   53  A    between atoms: _124  and  _125
REMARK   54  A    between atoms: _129  and  _131
REMARK   55  A    between atoms: _131  and  _132
REMARK   56  A    between atoms: _131  and  _134
REMARK   57  A    between atoms: _134  and  _135
REMARK   58  A    between atoms: _135  and  _136
REMARK   59  A    between atoms: _138  and  _140
REMARK   60  A    between atoms: _140  and  _141
REMARK   61  A    between atoms: _140  and  _143
REMARK   62  A    between atoms: _143  and  _144
REMARK   63  A    between atoms: _147  and  _149
REMARK   64  A    between atoms: _149  and  _150
REMARK   65  A    between atoms: _152  and  _154
REMARK   66  A    between atoms: _154  and  _155
REMARK   67  A    between atoms: _157  and  _159
REMARK   68  A    between atoms: _159  and  _160
REMARK   69  A    between atoms: _159  and  _162
REMARK   70  A    between atoms: _162  and  _163
REMARK   71  A    between atoms: _166  and  _168
REMARK   72  A    between atoms: _168  and  _169
REMARK   73  A    between atoms: _171  and  _173
REMARK   74  A    between atoms: _173  and  _174
REMARK   75  A    between atoms: _176  and  _178
REMARK   76  A    between atoms: _178  and  _179
REMARK   77  A    between atoms: _178  and  _181
REMARK   78  A    between atoms: _181  and  _182
REMARK   79  A    between atoms: _188  and  _190
REMARK   80  A    between atoms: _190  and  _191
REMARK   81  A    between atoms: _190  and  _193
REMARK   82  A    between atoms: _193  and  _194
REMARK   83  A    between atoms: _197  and  _199
REMARK   84  A    between atoms: _199  and  _200
REMARK   85  A    between atoms: _199  and  _202
REMARK   86  A    between atoms: _205  and  _207
REMARK   87  A    between atoms: _207  and  _208
REMARK   88  A    between atoms: _207  and  _210
REMARK   89  A    between atoms: _210  and  _211
REMARK   90  A    between atoms: _215  and  _216
REMARK   91  A    between atoms: _221  and  _223
REMARK   92  A    between atoms: _223  and  _224
REMARK   93  A    between atoms: _223  and  _226
REMARK   94  A    between atoms: _226  and  _227
REMARK   95  A    between atoms: _231  and  _232
REMARK   96  A    between atoms: _237  and  _239
REMARK   97  A    between atoms: _239  and  _240
REMARK   98  A    between atoms: _239  and  _242
REMARK   99  A    between atoms: _245  and  _247
REMARK  100  A    between atoms: _247  and  _248
REMARK  101  A    between atoms: _247  and  _250
REMARK  102  A    between atoms: _250  and  _251
REMARK  103  A    between atoms: _256  and  _258
REMARK  104  A    between atoms: _258  and  _259
REMARK  105  A    between atoms: _258  and  _261
REMARK  106  A    between atoms: _261  and  _262
REMARK  107  A    between atoms: _265  and  _267
REMARK  108  A    between atoms: _267  and  _268
REMARK  109  A    between atoms: _267  and  _270
REMARK  110  A    between atoms: _270  and  _271
REMARK  111  A    between atoms: _274  and  _276
REMARK  112  A    between atoms: _276  and  _277
REMARK  113  A    between atoms: _279  and  _281
REMARK  114  A    between atoms: _281  and  _282
REMARK  115  A    between atoms: _281  and  _284
REMARK  116  A    between atoms: _284  and  _285
REMARK  117  A    between atoms: _285  and  _286
REMARK  118  A    between atoms: _286  and  _287
REMARK  119  A    between atoms: _296  and  _298
REMARK  120  A    between atoms: _298  and  _299
REMARK  121  A    between atoms: _298  and  _301
REMARK  122  A    between atoms: _301  and  _302
REMARK  123  A    between atoms: _307  and  _309
REMARK  124  A    between atoms: _309  and  _310
REMARK  125  A    between atoms: _309  and  _312
REMARK  126  A    between atoms: _312  and  _313
REMARK  127  A    between atoms: _313  and  _314
REMARK  128  A    between atoms: _314  and  _315
REMARK  129  A    between atoms: _324  and  _326
REMARK  130  A    between atoms: _326  and  _327
REMARK  131  A    between atoms: _326  and  _329
REMARK  132  A    between atoms: _329  and  _330
REMARK  133  A    between atoms: _333  and  _335
REMARK  134  A    between atoms: _335  and  _336
REMARK  135  A    between atoms: _335  and  _338
REMARK  136  A    between atoms: _338  and  _339
REMARK  137  A    between atoms: _342  and  _344
REMARK  138  A    between atoms: _344  and  _345
REMARK  139  A    between atoms: _344  and  _347
REMARK  140  A    between atoms: _347  and  _348
REMARK  141  A    between atoms: _351  and  _353
REMARK  142  A    between atoms: _353  and  _354
REMARK  143  A    between atoms: _353  and  _356
REMARK  144  A    between atoms: _356  and  _357
REMARK  145  A    between atoms: _360  and  _362
REMARK  146  A    between atoms: _362  and  _363
REMARK  147  A    between atoms: _365  and  _367
REMARK  148  A    between atoms: _367  and  _368
REMARK  149  A    between atoms: _371  and  _373
REMARK  150  A    between atoms: _373  and  _374
REMARK  151  A    between atoms: _373  and  _376
REMARK  152  A    between atoms: _376  and  _377
REMARK  153  A    between atoms: _380  and  _382
REMARK  154  A    between atoms: _382  and  _383
REMARK  155  A    between atoms: _382  and  _385
REMARK  156  A    between atoms: _385  and  _386
REMARK  157  A    between atoms: _389  and  _391
REMARK  158  A    between atoms: _391  and  _392
REMARK  159  A    between atoms: _391  and  _394
REMARK  160  A    between atoms: _394  and  _395
REMARK  161  A    between atoms: _398  and  _400
REMARK  162  A    between atoms: _400  and  _401
REMARK  163  A    between atoms: _400  and  _403
REMARK  164  A    between atoms: _406  and  _408
REMARK  165  A    between atoms: _408  and  _409
REMARK  166  A    between atoms: _408  and  _411
REMARK  167  A    between atoms: _411  and  _412
REMARK  168  A    between atoms: _415  and  _417
REMARK  169  A    between atoms: _417  and  _418
REMARK  170  A    between atoms: _417  and  _420
REMARK  171  A    between atoms: _420  and  _421
REMARK  172  A    between atoms: _421  and  _422
REMARK  173  A    between atoms: _422  and  _423
REMARK  174  A    between atoms: _423  and  _424
REMARK  175  A    between atoms: _428  and  _430
REMARK  176  A    between atoms: _430  and  _431
REMARK  177  A    between atoms: _430  and  _433
REMARK  178  A    between atoms: _433  and  _434
REMARK  179  A    between atoms: _434  and  _435
REMARK  180  A    between atoms: _437  and  _439
REMARK  181  A    between atoms: _439  and  _440
REMARK  182  A    between atoms: _439  and  _442
REMARK  183  A    between atoms: _442  and  _443
REMARK  184  A    between atoms: _446  and  _448
REMARK  185  A    between atoms: _448  and  _449
REMARK  186  A    between atoms: _451  and  _453
REMARK  187  A    between atoms: _453  and  _454
REMARK  188  A    between atoms: _456  and  _458
REMARK  189  A    between atoms: _458  and  _459
REMARK  190  A    between atoms: _458  and  _461
REMARK  191  A    between atoms: _461  and  _462
REMARK  192  A    between atoms: _465  and  _467
REMARK  193  A    between atoms: _467  and  _468
REMARK  194  A    between atoms: _470  and  _472
REMARK  195  A    between atoms: _472  and  _473
REMARK  196  A    between atoms: _475  and  _477
REMARK  197  A    between atoms: _477  and  _478
REMARK  198  A    between atoms: _477  and  _480
REMARK  199  A    between atoms: _480  and  _481
REMARK  200  A    between atoms: _487  and  _489
REMARK  201  A    between atoms: _489  and  _490
REMARK  202  A    between atoms: _489  and  _492
REMARK  203  A    between atoms: _492  and  _493
REMARK  204  A    between atoms: _496  and  _498
REMARK  205  A    between atoms: _498  and  _499
REMARK  206  A    between atoms: _498  and  _501
REMARK  207  A    between atoms: _504  and  _506
REMARK  208  A    between atoms: _506  and  _507
REMARK  209  A    between atoms: _506  and  _509
REMARK  210  A    between atoms: _509  and  _510
REMARK  211  A    between atoms: _513  and  _515
REMARK  212  A    between atoms: _515  and  _516
REMARK  213  A    between atoms: _515  and  _518
REMARK  214  A    between atoms: _518  and  _519
REMARK  215  A    between atoms: _523  and  _524
REMARK  216  A    between atoms: _529  and  _531
REMARK  217  A    between atoms: _531  and  _532
REMARK  218  A    between atoms: _531  and  _534
REMARK  219  A    between atoms: _537  and  _539
REMARK  220  A    between atoms: _539  and  _540
REMARK  221  A    between atoms: _539  and  _542
REMARK  222  A    between atoms: _542  and  _543
REMARK  223  A    between atoms: _548  and  _550
REMARK  224  A    between atoms: _550  and  _551
REMARK  225  A    between atoms: _550  and  _553
REMARK  226  A    between atoms: _553  and  _554
REMARK  227  A    between atoms: _557  and  _559
REMARK  228  A    between atoms: _559  and  _560
REMARK  229  A    between atoms: _559  and  _562
REMARK  230  A    between atoms: _562  and  _563
REMARK  231  A    between atoms: _566  and  _568
REMARK  232  A    between atoms: _568  and  _569
REMARK  233  A    between atoms: _571  and  _573
REMARK  234  A    between atoms: _573  and  _574
REMARK  235  A    between atoms: _573  and  _576
REMARK  236  A    between atoms: _576  and  _577
REMARK  237  A    between atoms: _577  and  _578
REMARK  238  A    between atoms: _578  and  _579
REMARK  239  A    between atoms: _588  and  _590
REMARK  240  A    between atoms: _590  and  _591
REMARK  241  A    between atoms: _590  and  _593
REMARK  242  A    between atoms: _593  and  _594
REMARK                            x       y       z     vdW  Elec       q    Type
REMARK                         _______ _______ _______ _____ _____    ______ ____
ROOT
ATOM      1  O   HOH     1       6.676  15.652  18.563  0.00  0.00    +0.000 OA
ENDROOT
TORSDOF 0
REMARK  Name = ../refined-set-2016/4zip/4zip_pocket.pdb
REMARK  242 active torsions:
REMARK  status: ('A' for Active; 'I' for Inactive)
REMARK    1  A    between atoms: _1  and  _3
REMARK    2  A    between atoms: _3  and  _4
REMARK    3  A    between atoms: _3  and  _6
REMARK    4  A    between atoms: _6  and  _7
REMARK    5  A    between atoms: _7  and  _8
REMARK    6  A    between atoms: _8  and  _9
REMARK    7  A    between atoms: _19  and  _20
REMARK    8  A    between atoms: _25  and  _27
REMARK    9  A    between atoms: _27  and  _28
REMARK   10  A    between atoms: _27  and  _30
REMARK   11  A    between atoms: _30  and  _31
REMARK   12  A    between atoms: _34  and  _36
REMARK   13  A    between atoms: _36  and  _37
REMARK   14  A    between atoms: _36  and  _39
REMARK   15  A    between atoms: _39  and  _40
REMARK   16  A    between atoms: _43  and  _45
REMARK   17  A    between atoms: _45  and  _46
REMARK   18  A    between atoms: _45  and  _48
REMARK   19  A    between atoms: _48  and  _49
REMARK   20  A    between atoms: _52  and  _54
REMARK   21  A    between atoms: _54  and  _55
REMARK   22  A    between atoms: _54  and  _57
REMARK   23  A    between atoms: _57  and  _58
REMARK   24  A    between atoms: _61  and  _63
REMARK   25  A    between atoms: _63  and  _64
REMARK   26  A    between atoms: _63  and  _66
REMARK   27  A    between atoms: _66  and  _67
REMARK   28  A    between atoms: _70  and  _72
REMARK   29  A    between atoms: _72  and  _73
REMARK   30  A    between atoms: _75  and  _77
REMARK   31  A    between atoms: _77  and  _78
REMARK   32  A    between atoms: _81  and  _83
REMARK   33  A    between atoms: _83  and  _84
REMARK   34  A    between atoms: _83  and  _86
REMARK   35  A    between atoms: _86  and  _87
REMARK   36  A    between atoms: _90  and  _92
REMARK   37  A    between atoms: _92  and  _93
REMARK   38  A    between atoms: _92  and  _95
REMARK   39  A    between atoms: _95  and  _96
REMARK   40  A    between atoms: _99  and  _101
REMARK   41  A    between atoms: _101  and  _102
REMARK   42  A    between atoms: _101  and  _104
REMARK   43  A    between atoms: _104  and  _105
REMARK   44  A    between atoms: _108  and  _110
REMARK   45  A    between atoms: _110  and  _111
REMARK   46  A    between atoms: _110  and  _113
REMARK   47  A    between atoms: _116  and  _118
REMARK   48  A    between atoms: _118  and  _119
REMARK   49  A    between atoms: _118  and  _121
REMARK   50  A    between atoms: _121  and  _122
REMARK   51  A    between atoms: _122  and  _123
REMARK   52  A    between atoms: _123  and  _124
REMARK   53  A    between atoms: _124  and  _125
REMARK   54  A    between atoms: _129  and  _131
REMARK   55  A    between atoms: _131  and  _132
REMARK   56  A    between atoms: _131  and  _134
REMARK   57  A    between atoms: _134  and  _135
REMARK   58  A    between atoms: _135  and  _136
REMARK   59  A    between atoms: _138  and  _140
REMARK   60  A    between atoms: _140  and  _141
REMARK   61  A    between atoms: _140  and  _143
REMARK   62  A    between atoms: _143  and  _144
REMARK   63  A    between atoms: _147  and  _149
REMARK   64  A    between atoms: _149  and  _150
REMARK   65  A    between atoms: _152  and  _154
REMARK   66  A    between atoms: _154  and  _155
REMARK   67  A    between atoms: _157  and  _159
REMARK   68  A    between atoms: _159  and  _160
REMARK   69  A    between atoms: _159  and  _162
REMARK   70  A    between atoms: _162  and  _163
REMARK   71  A    between atoms: _166  and  _168
REMARK   72  A    between atoms: _168  and  _169
REMARK   73  A    between atoms: _171  and  _173
REMARK   74  A    between atoms: _173  and  _174
REMARK   75  A    between atoms: _176  and  _178
REMARK   76  A    between atoms: _178  and  _179
REMARK   77  A    between atoms: _178  and  _181
REMARK   78  A    between atoms: _181  and  _182
REMARK   79  A    between atoms: _188  and  _190
REMARK   80  A    between atoms: _190  and  _191
REMARK   81  A    between atoms: _190  and  _193
REMARK   82  A    between atoms: _193  and  _194
REMARK   83  A    between atoms: _197  and  _199
REMARK   84  A    between atoms: _199  and  _200
REMARK   85  A    between atoms: _199  and  _202
REMARK   86  A    between atoms: _205  and  _207
REMARK   87  A    between atoms: _207  and  _208
REMARK   88  A    between atoms: _207  and  _210
REMARK   89  A    between atoms: _210  and  _211
REMARK   90  A    between atoms: _215  and  _216
REMARK   91  A    between atoms: _221  and  _223
REMARK   92  A    between atoms: _223  and  _224
REMARK   93  A    between atoms: _223  and  _226
REMARK   94  A    between atoms: _226  and  _227
REMARK   95  A    between atoms: _231  and  _232
REMARK   96  A    between atoms: _237  and  _239
REMARK   97  A    between atoms: _239  and  _240
REMARK   98  A    between atoms: _239  and  _242
REMARK   99  A    between atoms: _245  and  _247
REMARK  100  A    between atoms: _247  and  _248
REMARK  101  A    between atoms: _247  and  _250
REMARK  102  A    between atoms: _250  and  _251
REMARK  103  A    between atoms: _256  and  _258
REMARK  104  A    between atoms: _258  and  _259
REMARK  105  A    between atoms: _258  and  _261
REMARK  106  A    between atoms: _261  and  _262
REMARK  107  A    between atoms: _265  and  _267
REMARK  108  A    between atoms: _267  and  _268
REMARK  109  A    between atoms: _267  and  _270
REMARK  110  A    between atoms: _270  and  _271
REMARK  111  A    between atoms: _274  and  _276
REMARK  112  A    between atoms: _276  and  _277
REMARK  113  A    between atoms: _279  and  _281
REMARK  114  A    between atoms: _281  and  _282
REMARK  115  A    between atoms: _281  and  _284
REMARK  116  A    between atoms: _284  and  _285
REMARK  117  A    between atoms: _285  and  _286
REMARK  118  A    between atoms: _286  and  _287
REMARK  119  A    between atoms: _296  and  _298
REMARK  120  A    between atoms: _298  and  _299
REMARK  121  A    between atoms: _298  and  _301
REMARK  122  A    between atoms: _301  and  _302
REMARK  123  A    between atoms: _307  and  _309
REMARK  124  A    between atoms: _309  and  _310
REMARK  125  A    between atoms: _309  and  _312
REMARK  126  A    between atoms: _312  and  _313
REMARK  127  A    between atoms: _313  and  _314
REMARK  128  A    between atoms: _314  and  _315
REMARK  129  A    between atoms: _324  and  _326
REMARK  130  A    between atoms: _326  and  _327
REMARK  131  A    between atoms: _326  and  _329
REMARK  132  A    between atoms: _329  and  _330
REMARK  133  A    between atoms: _333  and  _335
REMARK  134  A    between atoms: _335  and  _336
REMARK  135  A    between atoms: _335  and  _338
REMARK  136  A    between atoms: _338  and  _339
REMARK  137  A    between atoms: _342  and  _344
REMARK  138  A    between atoms: _344  and  _345
REMARK  139  A    between atoms: _344  and  _347
REMARK  140  A    between atoms: _347  and  _348
REMARK  141  A    between atoms: _351  and  _353
REMARK  142  A    between atoms: _353  and  _354
REMARK  143  A    between atoms: _353  and  _356
REMARK  144  A    between atoms: _356  and  _357
REMARK  145  A    between atoms: _360  and  _362
REMARK  146  A    between atoms: _362  and  _363
REMARK  147  A    between atoms: _365  and  _367
REMARK  148  A    between atoms: _367  and  _368
REMARK  149  A    between atoms: _371  and  _373
REMARK  150  A    between atoms: _373  and  _374
REMARK  151  A    between atoms: _373  and  _376
REMARK  152  A    between atoms: _376  and  _377
REMARK  153  A    between atoms: _380  and  _382
REMARK  154  A    between atoms: _382  and  _383
REMARK  155  A    between atoms: _382  and  _385
REMARK  156  A    between atoms: _385  and  _386
REMARK  157  A    between atoms: _389  and  _391
REMARK  158  A    between atoms: _391  and  _392
REMARK  159  A    between atoms: _391  and  _394
REMARK  160  A    between atoms: _394  and  _395
REMARK  161  A    between atoms: _398  and  _400
REMARK  162  A    between atoms: _400  and  _401
REMARK  163  A    between atoms: _400  and  _403
REMARK  164  A    between atoms: _406  and  _408
REMARK  165  A    between atoms: _408  and  _409
REMARK  166  A    between atoms: _408  and  _411
REMARK  167  A    between atoms: _411  and  _412
REMARK  168  A    between atoms: _415  and  _417
REMARK  169  A    between atoms: _417  and  _418
REMARK  170  A    between atoms: _417  and  _420
REMARK  171  A    between atoms: _420  and  _421
REMARK  172  A    between atoms: _421  and  _422
REMARK  173  A    between atoms: _422  and  _423
REMARK  174  A    between atoms: _423  and  _424
REMARK  175  A    between atoms: _428  and  _430
REMARK  176  A    between atoms: _430  and  _431
REMARK  177  A    between atoms: _430  and  _433
REMARK  178  A    between atoms: _433  and  _434
REMARK  179  A    between atoms: _434  and  _435
REMARK  180  A    between atoms: _437  and  _439
REMARK  181  A    between atoms: _439  and  _440
REMARK  182  A    between atoms: _439  and  _442
REMARK  183  A    between atoms: _442  and  _443
REMARK  184  A    between atoms: _446  and  _448
REMARK  185  A    between atoms: _448  and  _449
REMARK  186  A    between atoms: _451  and  _453
REMARK  187  A    between atoms: _453  and  _454
REMARK  188  A    between atoms: _456  and  _458
REMARK  189  A    between atoms: _458  and  _459
REMARK  190  A    between atoms: _458  and  _461
REMARK  191  A    between atoms: _461  and  _462
REMARK  192  A    between atoms: _465  and  _467
REMARK  193  A    between atoms: _467  and  _468
REMARK  194  A    between atoms: _470  and  _472
REMARK  195  A    between atoms: _472  and  _473
REMARK  196  A    between atoms: _475  and  _477
REMARK  197  A    between atoms: _477  and  _478
REMARK  198  A    between atoms: _477  and  _480
REMARK  199  A    between atoms: _480  and  _481
REMARK  200  A    between atoms: _487  and  _489
REMARK  201  A    between atoms: _489  and  _490
REMARK  202  A    between atoms: _489  and  _492
REMARK  203  A    between atoms: _492  and  _493
REMARK  204  A    between atoms: _496  and  _498
REMARK  205  A    between atoms: _498  and  _499
REMARK  206  A    between atoms: _498  and  _501
REMARK  207  A    between atoms: _504  and  _506
REMARK  208  A    between atoms: _506  and  _507
REMARK  209  A    between atoms: _506  and  _509
REMARK  210  A    between atoms: _509  and  _510
REMARK  211  A    between atoms: _513  and  _515
REMARK  212  A    between atoms: _515  and  _516
REMARK  213  A    between atoms: _515  and  _518
REMARK  214  A    between atoms: _518  and  _519
REMARK  215  A    between atoms: _523  and  _524
REMARK  216  A    between atoms: _529  and  _531
REMARK  217  A    between atoms: _531  and  _532
REMARK  218  A    between atoms: _531  and  _534
REMARK  219  A    between atoms: _537  and  _539
REMARK  220  A    between atoms: _539  and  _540
REMARK  221  A    between atoms: _539  and  _542
REMARK  222  A    between atoms: _542  and  _543
REMARK  223  A    between atoms: _548  and  _550
REMARK  224  A    between atoms: _550  and  _551
REMARK  225  A    between atoms: _550  and  _553
REMARK  226  A    between atoms: _553  and  _554
REMARK  227  A    between atoms: _557  and  _559
REMARK  228  A    between atoms: _559  and  _560
REMARK  229  A    between atoms: _559  and  _562
REMARK  230  A    between atoms: _562  and  _563
REMARK  231  A    between atoms: _566  and  _568
REMARK  232  A    between atoms: _568  and  _569
REMARK  233  A    between atoms: _571  and  _573
REMARK  234  A    between atoms: _573  and  _574
REMARK  235  A    between atoms: _573  and  _576
REMARK  236  A    between atoms: _576  and  _577
REMARK  237  A    between atoms: _577  and  _578
REMARK  238  A    between atoms: _578  and  _579
REMARK  239  A    between atoms: _588  and  _590
REMARK  240  A    between atoms: _590  and  _591
REMARK  241  A    between atoms: _590  and  _593
REMARK  242  A    between atoms: _593  and  _594
REMARK                            x       y       z     vdW  Elec       q    Type
REMARK                         _______ _______ _______ _____ _____    ______ ____
ROOT
ATOM      1  O   HOH     1      18.131  20.526  16.493  0.00  0.00    +0.000 OA
ENDROOT
TORSDOF 0
REMARK  Name = ../refined-set-2016/4zip/4zip_pocket.pdb
REMARK  242 active torsions:
REMARK  status: ('A' for Active; 'I' for Inactive)
REMARK    1  A    between atoms: _1  and  _3
REMARK    2  A    between atoms: _3  and  _4
REMARK    3  A    between atoms: _3  and  _6
REMARK    4  A    between atoms: _6  and  _7
REMARK    5  A    between atoms: _7  and  _8
REMARK    6  A    between atoms: _8  and  _9
REMARK    7  A    between atoms: _19  and  _20
REMARK    8  A    between atoms: _25  and  _27
REMARK    9  A    between atoms: _27  and  _28
REMARK   10  A    between atoms: _27  and  _30
REMARK   11  A    between atoms: _30  and  _31
REMARK   12  A    between atoms: _34  and  _36
REMARK   13  A    between atoms: _36  and  _37
REMARK   14  A    between atoms: _36  and  _39
REMARK   15  A    between atoms: _39  and  _40
REMARK   16  A    between atoms: _43  and  _45
REMARK   17  A    between atoms: _45  and  _46
REMARK   18  A    between atoms: _45  and  _48
REMARK   19  A    between atoms: _48  and  _49
REMARK   20  A    between atoms: _52  and  _54
REMARK   21  A    between atoms: _54  and  _55
REMARK   22  A    between atoms: _54  and  _57
REMARK   23  A    between atoms: _57  and  _58
REMARK   24  A    between atoms: _61  and  _63
REMARK   25  A    between atoms: _63  and  _64
REMARK   26  A    between atoms: _63  and  _66
REMARK   27  A    between atoms: _66  and  _67
REMARK   28  A    between atoms: _70  and  _72
REMARK   29  A    between atoms: _72  and  _73
REMARK   30  A    between atoms: _75  and  _77
REMARK   31  A    between atoms: _77  and  _78
REMARK   32  A    between atoms: _81  and  _83
REMARK   33  A    between atoms: _83  and  _84
REMARK   34  A    between atoms: _83  and  _86
REMARK   35  A    between atoms: _86  and  _87
REMARK   36  A    between atoms: _90  and  _92
REMARK   37  A    between atoms: _92  and  _93
REMARK   38  A    between atoms: _92  and  _95
REMARK   39  A    between atoms: _95  and  _96
REMARK   40  A    between atoms: _99  and  _101
REMARK   41  A    between atoms: _101  and  _102
REMARK   42  A    between atoms: _101  and  _104
REMARK   43  A    between atoms: _104  and  _105
REMARK   44  A    between atoms: _108  and  _110
REMARK   45  A    between atoms: _110  and  _111
REMARK   46  A    between atoms: _110  and  _113
REMARK   47  A    between atoms: _116  and  _118
REMARK   48  A    between atoms: _118  and  _119
REMARK   49  A    between atoms: _118  and  _121
REMARK   50  A    between atoms: _121  and  _122
REMARK   51  A    between atoms: _122  and  _123
REMARK   52  A    between atoms: _123  and  _124
REMARK   53  A    between atoms: _124  and  _125
REMARK   54  A    between atoms: _129  and  _131
REMARK   55  A    between atoms: _131  and  _132
REMARK   56  A    between atoms: _131  and  _134
REMARK   57  A    between atoms: _134  and  _135
REMARK   58  A    between atoms: _135  and  _136
REMARK   59  A    between atoms: _138  and  _140
REMARK   60  A    between atoms: _140  and  _141
REMARK   61  A    between atoms: _140  and  _143
REMARK   62  A    between atoms: _143  and  _144
REMARK   63  A    between atoms: _147  and  _149
REMARK   64  A    between atoms: _149  and  _150
REMARK   65  A    between atoms: _152  and  _154
REMARK   66  A    between atoms: _154  and  _155
REMARK   67  A    between atoms: _157  and  _159
REMARK   68  A    between atoms: _159  and  _160
REMARK   69  A    between atoms: _159  and  _162
REMARK   70  A    between atoms: _162  and  _163
REMARK   71  A    between atoms: _166  and  _168
REMARK   72  A    between atoms: _168  and  _169
REMARK   73  A    between atoms: _171  and  _173
REMARK   74  A    between atoms: _173  and  _174
REMARK   75  A    between atoms: _176  and  _178
REMARK   76  A    between atoms: _178  and  _179
REMARK   77  A    between atoms: _178  and  _181
REMARK   78  A    between atoms: _181  and  _182
REMARK   79  A    between atoms: _188  and  _190
REMARK   80  A    between atoms: _190  and  _191
REMARK   81  A    between atoms: _190  and  _193
REMARK   82  A    between atoms: _193  and  _194
REMARK   83  A    between atoms: _197  and  _199
REMARK   84  A    between atoms: _199  and  _200
REMARK   85  A    between atoms: _199  and  _202
REMARK   86  A    between atoms: _205  and  _207
REMARK   87  A    between atoms: _207  and  _208
REMARK   88  A    between atoms: _207  and  _210
REMARK   89  A    between atoms: _210  and  _211
REMARK   90  A    between atoms: _215  and  _216
REMARK   91  A    between atoms: _221  and  _223
REMARK   92  A    between atoms: _223  and  _224
REMARK   93  A    between atoms: _223  and  _226
REMARK   94  A    between atoms: _226  and  _227
REMARK   95  A    between atoms: _231  and  _232
REMARK   96  A    between atoms: _237  and  _239
REMARK   97  A    between atoms: _239  and  _240
REMARK   98  A    between atoms: _239  and  _242
REMARK   99  A    between atoms: _245  and  _247
REMARK  100  A    between atoms: _247  and  _248
REMARK  101  A    between atoms: _247  and  _250
REMARK  102  A    between atoms: _250  and  _251
REMARK  103  A    between atoms: _256  and  _258
REMARK  104  A    between atoms: _258  and  _259
REMARK  105  A    between atoms: _258  and  _261
REMARK  106  A    between atoms: _261  and  _262
REMARK  107  A    between atoms: _265  and  _267
REMARK  108  A    between atoms: _267  and  _268
REMARK  109  A    between atoms: _267  and  _270
REMARK  110  A    between atoms: _270  and  _271
REMARK  111  A    between atoms: _274  and  _276
REMARK  112  A    between atoms: _276  and  _277
REMARK  113  A    between atoms: _279  and  _281
REMARK  114  A    between atoms: _281  and  _282
REMARK  115  A    between atoms: _281  and  _284
REMARK  116  A    between atoms: _284  and  _285
REMARK  117  A    between atoms: _285  and  _286
REMARK  118  A    between atoms: _286  and  _287
REMARK  119  A    between atoms: _296  and  _298
REMARK  120  A    between atoms: _298  and  _299
REMARK  121  A    between atoms: _298  and  _301
REMARK  122  A    between atoms: _301  and  _302
REMARK  123  A    between atoms: _307  and  _309
REMARK  124  A    between atoms: _309  and  _310
REMARK  125  A    between atoms: _309  and  _312
REMARK  126  A    between atoms: _312  and  _313
REMARK  127  A    between atoms: _313  and  _314
REMARK  128  A    between atoms: _314  and  _315
REMARK  129  A    between atoms: _324  and  _326
REMARK  130  A    between atoms: _326  and  _327
REMARK  131  A    between atoms: _326  and  _329
REMARK  132  A    between atoms: _329  and  _330
REMARK  133  A    between atoms: _333  and  _335
REMARK  134  A    between atoms: _335  and  _336
REMARK  135  A    between atoms: _335  and  _338
REMARK  136  A    between atoms: _338  and  _339
REMARK  137  A    between atoms: _342  and  _344
REMARK  138  A    between atoms: _344  and  _345
REMARK  139  A    between atoms: _344  and  _347
REMARK  140  A    between atoms: _347  and  _348
REMARK  141  A    between atoms: _351  and  _353
REMARK  142  A    between atoms: _353  and  _354
REMARK  143  A    between atoms: _353  and  _356
REMARK  144  A    between atoms: _356  and  _357
REMARK  145  A    between atoms: _360  and  _362
REMARK  146  A    between atoms: _362  and  _363
REMARK  147  A    between atoms: _365  and  _367
REMARK  148  A    between atoms: _367  and  _368
REMARK  149  A    between atoms: _371  and  _373
REMARK  150  A    between atoms: _373  and  _374
REMARK  151  A    between atoms: _373  and  _376
REMARK  152  A    between atoms: _376  and  _377
REMARK  153  A    between atoms: _380  and  _382
REMARK  154  A    between atoms: _382  and  _383
REMARK  155  A    between atoms: _382  and  _385
REMARK  156  A    between atoms: _385  and  _386
REMARK  157  A    between atoms: _389  and  _391
REMARK  158  A    between atoms: _391  and  _392
REMARK  159  A    between atoms: _391  and  _394
REMARK  160  A    between atoms: _394  and  _395
REMARK  161  A    between atoms: _398  and  _400
REMARK  162  A    between atoms: _400  and  _401
REMARK  163  A    between atoms: _400  and  _403
REMARK  164  A    between atoms: _406  and  _408
REMARK  165  A    between atoms: _408  and  _409
REMARK  166  A    between atoms: _408  and  _411
REMARK  167  A    between atoms: _411  and  _412
REMARK  168  A    between atoms: _415  and  _417
REMARK  169  A    between atoms: _417  and  _418
REMARK  170  A    between atoms: _417  and  _420
REMARK  171  A    between atoms: _420  and  _421
REMARK  172  A    between atoms: _421  and  _422
REMARK  173  A    between atoms: _422  and  _423
REMARK  174  A    between atoms: _423  and  _424
REMARK  175  A    between atoms: _428  and  _430
REMARK  176  A    between atoms: _430  and  _431
REMARK  177  A    between atoms: _430  and  _433
REMARK  178  A    between atoms: _433  and  _434
REMARK  179  A    between atoms: _434  and  _435
REMARK  180  A    between atoms: _437  and  _439
REMARK  181  A    between atoms: _439  and  _440
REMARK  182  A    between atoms: _439  and  _442
REMARK  183  A    between atoms: _442  and  _443
REMARK  184  A    between atoms: _446  and  _448
REMARK  185  A    between atoms: _448  and  _449
REMARK  186  A    between atoms: _451  and  _453
REMARK  187  A    between atoms: _453  and  _454
REMARK  188  A    between atoms: _456  and  _458
REMARK  189  A    between atoms: _458  and  _459
REMARK  190  A    between atoms: _458  and  _461
REMARK  191  A    between atoms: _461  and  _462
REMARK  192  A    between atoms: _465  and  _467
REMARK  193  A    between atoms: _467  and  _468
REMARK  194  A    between atoms: _470  and  _472
REMARK  195  A    between atoms: _472  and  _473
REMARK  196  A    between atoms: _475  and  _477
REMARK  197  A    between atoms: _477  and  _478
REMARK  198  A    between atoms: _477  and  _480
REMARK  199  A    between atoms: _480  and  _481
REMARK  200  A    between atoms: _487  and  _489
REMARK  201  A    between atoms: _489  and  _490
REMARK  202  A    between atoms: _489  and  _492
REMARK  203  A    between atoms: _492  and  _493
REMARK  204  A    between atoms: _496  and  _498
REMARK  205  A    between atoms: _498  and  _499
REMARK  206  A    between atoms: _498  and  _501
REMARK  207  A    between atoms: _504  and  _506
REMARK  208  A    between atoms: _506  and  _507
REMARK  209  A    between atoms: _506  and  _509
REMARK  210  A    between atoms: _509  and  _510
REMARK  211  A    between atoms: _513  and  _515
REMARK  212  A    between atoms: _515  and  _516
REMARK  213  A    between atoms: _515  and  _518
REMARK  214  A    between atoms: _518  and  _519
REMARK  215  A    between atoms: _523  and  _524
REMARK  216  A    between atoms: _529  and  _531
REMARK  217  A    between atoms: _531  and  _532
REMARK  218  A    between atoms: _531  and  _534
REMARK  219  A    between atoms: _537  and  _539
REMARK  220  A    between atoms: _539  and  _540
REMARK  221  A    between atoms: _539  and  _542
REMARK  222  A    between atoms: _542  and  _543
REMARK  223  A    between atoms: _548  and  _550
REMARK  224  A    between atoms: _550  and  _551
REMARK  225  A    between atoms: _550  and  _553
REMARK  226  A    between atoms: _553  and  _554
REMARK  227  A    between atoms: _557  and  _559
REMARK  228  A    between atoms: _559  and  _560
REMARK  229  A    between atoms: _559  and  _562
REMARK  230  A    between atoms: _562  and  _563
REMARK  231  A    between atoms: _566  and  _568
REMARK  232  A    between atoms: _568  and  _569
REMARK  233  A    between atoms: _571  and  _573
REMARK  234  A    between atoms: _573  and  _574
REMARK  235  A    between atoms: _573  and  _576
REMARK  236  A    between atoms: _576  and  _577
REMARK  237  A    between atoms: _577  and  _578
REMARK  238  A    between atoms: _578  and  _579
REMARK  239  A    between atoms: _588  and  _590
REMARK  240  A    between atoms: _590  and  _591
REMARK  241  A    between atoms: _590  and  _593
REMARK  242  A    between atoms: _593  and  _594
REMARK                            x       y       z     vdW  Elec       q    Type
REMARK                         _______ _______ _______ _____ _____    ______ ____
ROOT
ATOM      1  O   HOH     1      20.121  28.921  21.120  0.00  0.00    +0.000 OA
ENDROOT
TORSDOF 0
REMARK  Name = ../refined-set-2016/4zip/4zip_pocket.pdb
REMARK  242 active torsions:
REMARK  status: ('A' for Active; 'I' for Inactive)
REMARK    1  A    between atoms: _1  and  _3
REMARK    2  A    between atoms: _3  and  _4
REMARK    3  A    between atoms: _3  and  _6
REMARK    4  A    between atoms: _6  and  _7
REMARK    5  A    between atoms: _7  and  _8
REMARK    6  A    between atoms: _8  and  _9
REMARK    7  A    between atoms: _19  and  _20
REMARK    8  A    between atoms: _25  and  _27
REMARK    9  A    between atoms: _27  and  _28
REMARK   10  A    between atoms: _27  and  _30
REMARK   11  A    between atoms: _30  and  _31
REMARK   12  A    between atoms: _34  and  _36
REMARK   13  A    between atoms: _36  and  _37
REMARK   14  A    between atoms: _36  and  _39
REMARK   15  A    between atoms: _39  and  _40
REMARK   16  A    between atoms: _43  and  _45
REMARK   17  A    between atoms: _45  and  _46
REMARK   18  A    between atoms: _45  and  _48
REMARK   19  A    between atoms: _48  and  _49
REMARK   20  A    between atoms: _52  and  _54
REMARK   21  A    between atoms: _54  and  _55
REMARK   22  A    between atoms: _54  and  _57
REMARK   23  A    between atoms: _57  and  _58
REMARK   24  A    between atoms: _61  and  _63
REMARK   25  A    between atoms: _63  and  _64
REMARK   26  A    between atoms: _63  and  _66
REMARK   27  A    between atoms: _66  and  _67
REMARK   28  A    between atoms: _70  and  _72
REMARK   29  A    between atoms: _72  and  _73
REMARK   30  A    between atoms: _75  and  _77
REMARK   31  A    between atoms: _77  and  _78
REMARK   32  A    between atoms: _81  and  _83
REMARK   33  A    between atoms: _83  and  _84
REMARK   34  A    between atoms: _83  and  _86
REMARK   35  A    between atoms: _86  and  _87
REMARK   36  A    between atoms: _90  and  _92
REMARK   37  A    between atoms: _92  and  _93
REMARK   38  A    between atoms: _92  and  _95
REMARK   39  A    between atoms: _95  and  _96
REMARK   40  A    between atoms: _99  and  _101
REMARK   41  A    between atoms: _101  and  _102
REMARK   42  A    between atoms: _101  and  _104
REMARK   43  A    between atoms: _104  and  _105
REMARK   44  A    between atoms: _108  and  _110
REMARK   45  A    between atoms: _110  and  _111
REMARK   46  A    between atoms: _110  and  _113
REMARK   47  A    between atoms: _116  and  _118
REMARK   48  A    between atoms: _118  and  _119
REMARK   49  A    between atoms: _118  and  _121
REMARK   50  A    between atoms: _121  and  _122
REMARK   51  A    between atoms: _122  and  _123
REMARK   52  A    between atoms: _123  and  _124
REMARK   53  A    between atoms: _124  and  _125
REMARK   54  A    between atoms: _129  and  _131
REMARK   55  A    between atoms: _131  and  _132
REMARK   56  A    between atoms: _131  and  _134
REMARK   57  A    between atoms: _134  and  _135
REMARK   58  A    between atoms: _135  and  _136
REMARK   59  A    between atoms: _138  and  _140
REMARK   60  A    between atoms: _140  and  _141
REMARK   61  A    between atoms: _140  and  _143
REMARK   62  A    between atoms: _143  and  _144
REMARK   63  A    between atoms: _147  and  _149
REMARK   64  A    between atoms: _149  and  _150
REMARK   65  A    between atoms: _152  and  _154
REMARK   66  A    between atoms: _154  and  _155
REMARK   67  A    between atoms: _157  and  _159
REMARK   68  A    between atoms: _159  and  _160
REMARK   69  A    between atoms: _159  and  _162
REMARK   70  A    between atoms: _162  and  _163
REMARK   71  A    between atoms: _166  and  _168
REMARK   72  A    between atoms: _168  and  _169
REMARK   73  A    between atoms: _171  and  _173
REMARK   74  A    between atoms: _173  and  _174
REMARK   75  A    between atoms: _176  and  _178
REMARK   76  A    between atoms: _178  and  _179
REMARK   77  A    between atoms: _178  and  _181
REMARK   78  A    between atoms: _181  and  _182
REMARK   79  A    between atoms: _188  and  _190
REMARK   80  A    between atoms: _190  and  _191
REMARK   81  A    between atoms: _190  and  _193
REMARK   82  A    between atoms: _193  and  _194
REMARK   83  A    between atoms: _197  and  _199
REMARK   84  A    between atoms: _199  and  _200
REMARK   85  A    between atoms: _199  and  _202
REMARK   86  A    between atoms: _205  and  _207
REMARK   87  A    between atoms: _207  and  _208
REMARK   88  A    between atoms: _207  and  _210
REMARK   89  A    between atoms: _210  and  _211
REMARK   90  A    between atoms: _215  and  _216
REMARK   91  A    between atoms: _221  and  _223
REMARK   92  A    between atoms: _223  and  _224
REMARK   93  A    between atoms: _223  and  _226
REMARK   94  A    between atoms: _226  and  _227
REMARK   95  A    between atoms: _231  and  _232
REMARK   96  A    between atoms: _237  and  _239
REMARK   97  A    between atoms: _239  and  _240
REMARK   98  A    between atoms: _239  and  _242
REMARK   99  A    between atoms: _245  and  _247
REMARK  100  A    between atoms: _247  and  _248
REMARK  101  A    between atoms: _247  and  _250
REMARK  102  A    between atoms: _250  and  _251
REMARK  103  A    between atoms: _256  and  _258
REMARK  104  A    between atoms: _258  and  _259
REMARK  105  A    between atoms: _258  and  _261
REMARK  106  A    between atoms: _261  and  _262
REMARK  107  A    between atoms: _265  and  _267
REMARK  108  A    between atoms: _267  and  _268
REMARK  109  A    between atoms: _267  and  _270
REMARK  110  A    between atoms: _270  and  _271
REMARK  111  A    between atoms: _274  and  _276
REMARK  112  A    between atoms: _276  and  _277
REMARK  113  A    between atoms: _279  and  _281
REMARK  114  A    between atoms: _281  and  _282
REMARK  115  A    between atoms: _281  and  _284
REMARK  116  A    between atoms: _284  and  _285
REMARK  117  A    between atoms: _285  and  _286
REMARK  118  A    between atoms: _286  and  _287
REMARK  119  A    between atoms: _296  and  _298
REMARK  120  A    between atoms: _298  and  _299
REMARK  121  A    between atoms: _298  and  _301
REMARK  122  A    between atoms: _301  and  _302
REMARK  123  A    between atoms: _307  and  _309
REMARK  124  A    between atoms: _309  and  _310
REMARK  125  A    between atoms: _309  and  _312
REMARK  126  A    between atoms: _312  and  _313
REMARK  127  A    between atoms: _313  and  _314
REMARK  128  A    between atoms: _314  and  _315
REMARK  129  A    between atoms: _324  and  _326
REMARK  130  A    between atoms: _326  and  _327
REMARK  131  A    between atoms: _326  and  _329
REMARK  132  A    between atoms: _329  and  _330
REMARK  133  A    between atoms: _333  and  _335
REMARK  134  A    between atoms: _335  and  _336
REMARK  135  A    between atoms: _335  and  _338
REMARK  136  A    between atoms: _338  and  _339
REMARK  137  A    between atoms: _342  and  _344
REMARK  138  A    between atoms: _344  and  _345
REMARK  139  A    between atoms: _344  and  _347
REMARK  140  A    between atoms: _347  and  _348
REMARK  141  A    between atoms: _351  and  _353
REMARK  142  A    between atoms: _353  and  _354
REMARK  143  A    between atoms: _353  and  _356
REMARK  144  A    between atoms: _356  and  _357
REMARK  145  A    between atoms: _360  and  _362
REMARK  146  A    between atoms: _362  and  _363
REMARK  147  A    between atoms: _365  and  _367
REMARK  148  A    between atoms: _367  and  _368
REMARK  149  A    between atoms: _371  and  _373
REMARK  150  A    between atoms: _373  and  _374
REMARK  151  A    between atoms: _373  and  _376
REMARK  152  A    between atoms: _376  and  _377
REMARK  153  A    between atoms: _380  and  _382
REMARK  154  A    between atoms: _382  and  _383
REMARK  155  A    between atoms: _382  and  _385
REMARK  156  A    between atoms: _385  and  _386
REMARK  157  A    between atoms: _389  and  _391
REMARK  158  A    between atoms: _391  and  _392
REMARK  159  A    between atoms: _391  and  _394
REMARK  160  A    between atoms: _394  and  _395
REMARK  161  A    between atoms: _398  and  _400
REMARK  162  A    between atoms: _400  and  _401
REMARK  163  A    between atoms: _400  and  _403
REMARK  164  A    between atoms: _406  and  _408
REMARK  165  A    between atoms: _408  and  _409
REMARK  166  A    between atoms: _408  and  _411
REMARK  167  A    between atoms: _411  and  _412
REMARK  168  A    between atoms: _415  and  _417
REMARK  169  A    between atoms: _417  and  _418
REMARK  170  A    between atoms: _417  and  _420
REMARK  171  A    between atoms: _420  and  _421
REMARK  172  A    between atoms: _421  and  _422
REMARK  173  A    between atoms: _422  and  _423
REMARK  174  A    between atoms: _423  and  _424
REMARK  175  A    between atoms: _428  and  _430
REMARK  176  A    between atoms: _430  and  _431
REMARK  177  A    between atoms: _430  and  _433
REMARK  178  A    between atoms: _433  and  _434
REMARK  179  A    between atoms: _434  and  _435
REMARK  180  A    between atoms: _437  and  _439
REMARK  181  A    between atoms: _439  and  _440
REMARK  182  A    between atoms: _439  and  _442
REMARK  183  A    between atoms: _442  and  _443
REMARK  184  A    between atoms: _446  and  _448
REMARK  185  A    between atoms: _448  and  _449
REMARK  186  A    between atoms: _451  and  _453
REMARK  187  A    between atoms: _453  and  _454
REMARK  188  A    between atoms: _456  and  _458
REMARK  189  A    between atoms: _458  and  _459
REMARK  190  A    between atoms: _458  and  _461
REMARK  191  A    between atoms: _461  and  _462
REMARK  192  A    between atoms: _465  and  _467
REMARK  193  A    between atoms: _467  and  _468
REMARK  194  A    between atoms: _470  and  _472
REMARK  195  A    between atoms: _472  and  _473
REMARK  196  A    between atoms: _475  and  _477
REMARK  197  A    between atoms: _477  and  _478
REMARK  198  A    between atoms: _477  and  _480
REMARK  199  A    between atoms: _480  and  _481
REMARK  200  A    between atoms: _487  and  _489
REMARK  201  A    between atoms: _489  and  _490
REMARK  202  A    between atoms: _489  and  _492
REMARK  203  A    between atoms: _492  and  _493
REMARK  204  A    between atoms: _496  and  _498
REMARK  205  A    between atoms: _498  and  _499
REMARK  206  A    between atoms: _498  and  _501
REMARK  207  A    between atoms: _504  and  _506
REMARK  208  A    between atoms: _506  and  _507
REMARK  209  A    between atoms: _506  and  _509
REMARK  210  A    between atoms: _509  and  _510
REMARK  211  A    between atoms: _513  and  _515
REMARK  212  A    between atoms: _515  and  _516
REMARK  213  A    between atoms: _515  and  _518
REMARK  214  A    between atoms: _518  and  _519
REMARK  215  A    between atoms: _523  and  _524
REMARK  216  A    between atoms: _529  and  _531
REMARK  217  A    between atoms: _531  and  _532
REMARK  218  A    between atoms: _531  and  _534
REMARK  219  A    between atoms: _537  and  _539
REMARK  220  A    between atoms: _539  and  _540
REMARK  221  A    between atoms: _539  and  _542
REMARK  222  A    between atoms: _542  and  _543
REMARK  223  A    between atoms: _548  and  _550
REMARK  224  A    between atoms: _550  and  _551
REMARK  225  A    between atoms: _550  and  _553
REMARK  226  A    between atoms: _553  and  _554
REMARK  227  A    between atoms: _557  and  _559
REMARK  228  A    between atoms: _559  and  _560
REMARK  229  A    between atoms: _559  and  _562
REMARK  230  A    between atoms: _562  and  _563
REMARK  231  A    between atoms: _566  and  _568
REMARK  232  A    between atoms: _568  and  _569
REMARK  233  A    between atoms: _571  and  _573
REMARK  234  A    between atoms: _573  and  _574
REMARK  235  A    between atoms: _573  and  _576
REMARK  236  A    between atoms: _576  and  _577
REMARK  237  A    between atoms: _577  and  _578
REMARK  238  A    between atoms: _578  and  _579
REMARK  239  A    between atoms: _588  and  _590
REMARK  240  A    between atoms: _590  and  _591
REMARK  241  A    between atoms: _590  and  _593
REMARK  242  A    between atoms: _593  and  _594
REMARK                            x       y       z     vdW  Elec       q    Type
REMARK                         _______ _______ _______ _____ _____    ______ ____
ROOT
ATOM      1  O   HOH     1      19.805  16.845   9.071  0.00  0.00    +0.000 OA
ENDROOT
TORSDOF 0
REMARK  Name = ../refined-set-2016/4zip/4zip_pocket.pdb
REMARK  242 active torsions:
REMARK  status: ('A' for Active; 'I' for Inactive)
REMARK    1  A    between atoms: _1  and  _3
REMARK    2  A    between atoms: _3  and  _4
REMARK    3  A    between atoms: _3  and  _6
REMARK    4  A    between atoms: _6  and  _7
REMARK    5  A    between atoms: _7  and  _8
REMARK    6  A    between atoms: _8  and  _9
REMARK    7  A    between atoms: _19  and  _20
REMARK    8  A    between atoms: _25  and  _27
REMARK    9  A    between atoms: _27  and  _28
REMARK   10  A    between atoms: _27  and  _30
REMARK   11  A    between atoms: _30  and  _31
REMARK   12  A    between atoms: _34  and  _36
REMARK   13  A    between atoms: _36  and  _37
REMARK   14  A    between atoms: _36  and  _39
REMARK   15  A    between atoms: _39  and  _40
REMARK   16  A    between atoms: _43  and  _45
REMARK   17  A    between atoms: _45  and  _46
REMARK   18  A    between atoms: _45  and  _48
REMARK   19  A    between atoms: _48  and  _49
REMARK   20  A    between atoms: _52  and  _54
REMARK   21  A    between atoms: _54  and  _55
REMARK   22  A    between atoms: _54  and  _57
REMARK   23  A    between atoms: _57  and  _58
REMARK   24  A    between atoms: _61  and  _63
REMARK   25  A    between atoms: _63  and  _64
REMARK   26  A    between atoms: _63  and  _66
REMARK   27  A    between atoms: _66  and  _67
REMARK   28  A    between atoms: _70  and  _72
REMARK   29  A    between atoms: _72  and  _73
REMARK   30  A    between atoms: _75  and  _77
REMARK   31  A    between atoms: _77  and  _78
REMARK   32  A    between atoms: _81  and  _83
REMARK   33  A    between atoms: _83  and  _84
REMARK   34  A    between atoms: _83  and  _86
REMARK   35  A    between atoms: _86  and  _87
REMARK   36  A    between atoms: _90  and  _92
REMARK   37  A    between atoms: _92  and  _93
REMARK   38  A    between atoms: _92  and  _95
REMARK   39  A    between atoms: _95  and  _96
REMARK   40  A    between atoms: _99  and  _101
REMARK   41  A    between atoms: _101  and  _102
REMARK   42  A    between atoms: _101  and  _104
REMARK   43  A    between atoms: _104  and  _105
REMARK   44  A    between atoms: _108  and  _110
REMARK   45  A    between atoms: _110  and  _111
REMARK   46  A    between atoms: _110  and  _113
REMARK   47  A    between atoms: _116  and  _118
REMARK   48  A    between atoms: _118  and  _119
REMARK   49  A    between atoms: _118  and  _121
REMARK   50  A    between atoms: _121  and  _122
REMARK   51  A    between atoms: _122  and  _123
REMARK   52  A    between atoms: _123  and  _124
REMARK   53  A    between atoms: _124  and  _125
REMARK   54  A    between atoms: _129  and  _131
REMARK   55  A    between atoms: _131  and  _132
REMARK   56  A    between atoms: _131  and  _134
REMARK   57  A    between atoms: _134  and  _135
REMARK   58  A    between atoms: _135  and  _136
REMARK   59  A    between atoms: _138  and  _140
REMARK   60  A    between atoms: _140  and  _141
REMARK   61  A    between atoms: _140  and  _143
REMARK   62  A    between atoms: _143  and  _144
REMARK   63  A    between atoms: _147  and  _149
REMARK   64  A    between atoms: _149  and  _150
REMARK   65  A    between atoms: _152  and  _154
REMARK   66  A    between atoms: _154  and  _155
REMARK   67  A    between atoms: _157  and  _159
REMARK   68  A    between atoms: _159  and  _160
REMARK   69  A    between atoms: _159  and  _162
REMARK   70  A    between atoms: _162  and  _163
REMARK   71  A    between atoms: _166  and  _168
REMARK   72  A    between atoms: _168  and  _169
REMARK   73  A    between atoms: _171  and  _173
REMARK   74  A    between atoms: _173  and  _174
REMARK   75  A    between atoms: _176  and  _178
REMARK   76  A    between atoms: _178  and  _179
REMARK   77  A    between atoms: _178  and  _181
REMARK   78  A    between atoms: _181  and  _182
REMARK   79  A    between atoms: _188  and  _190
REMARK   80  A    between atoms: _190  and  _191
REMARK   81  A    between atoms: _190  and  _193
REMARK   82  A    between atoms: _193  and  _194
REMARK   83  A    between atoms: _197  and  _199
REMARK   84  A    between atoms: _199  and  _200
REMARK   85  A    between atoms: _199  and  _202
REMARK   86  A    between atoms: _205  and  _207
REMARK   87  A    between atoms: _207  and  _208
REMARK   88  A    between atoms: _207  and  _210
REMARK   89  A    between atoms: _210  and  _211
REMARK   90  A    between atoms: _215  and  _216
REMARK   91  A    between atoms: _221  and  _223
REMARK   92  A    between atoms: _223  and  _224
REMARK   93  A    between atoms: _223  and  _226
REMARK   94  A    between atoms: _226  and  _227
REMARK   95  A    between atoms: _231  and  _232
REMARK   96  A    between atoms: _237  and  _239
REMARK   97  A    between atoms: _239  and  _240
REMARK   98  A    between atoms: _239  and  _242
REMARK   99  A    between atoms: _245  and  _247
REMARK  100  A    between atoms: _247  and  _248
REMARK  101  A    between atoms: _247  and  _250
REMARK  102  A    between atoms: _250  and  _251
REMARK  103  A    between atoms: _256  and  _258
REMARK  104  A    between atoms: _258  and  _259
REMARK  105  A    between atoms: _258  and  _261
REMARK  106  A    between atoms: _261  and  _262
REMARK  107  A    between atoms: _265  and  _267
REMARK  108  A    between atoms: _267  and  _268
REMARK  109  A    between atoms: _267  and  _270
REMARK  110  A    between atoms: _270  and  _271
REMARK  111  A    between atoms: _274  and  _276
REMARK  112  A    between atoms: _276  and  _277
REMARK  113  A    between atoms: _279  and  _281
REMARK  114  A    between atoms: _281  and  _282
REMARK  115  A    between atoms: _281  and  _284
REMARK  116  A    between atoms: _284  and  _285
REMARK  117  A    between atoms: _285  and  _286
REMARK  118  A    between atoms: _286  and  _287
REMARK  119  A    between atoms: _296  and  _298
REMARK  120  A    between atoms: _298  and  _299
REMARK  121  A    between atoms: _298  and  _301
REMARK  122  A    between atoms: _301  and  _302
REMARK  123  A    between atoms: _307  and  _309
REMARK  124  A    between atoms: _309  and  _310
REMARK  125  A    between atoms: _309  and  _312
REMARK  126  A    between atoms: _312  and  _313
REMARK  127  A    between atoms: _313  and  _314
REMARK  128  A    between atoms: _314  and  _315
REMARK  129  A    between atoms: _324  and  _326
REMARK  130  A    between atoms: _326  and  _327
REMARK  131  A    between atoms: _326  and  _329
REMARK  132  A    between atoms: _329  and  _330
REMARK  133  A    between atoms: _333  and  _335
REMARK  134  A    between atoms: _335  and  _336
REMARK  135  A    between atoms: _335  and  _338
REMARK  136  A    between atoms: _338  and  _339
REMARK  137  A    between atoms: _342  and  _344
REMARK  138  A    between atoms: _344  and  _345
REMARK  139  A    between atoms: _344  and  _347
REMARK  140  A    between atoms: _347  and  _348
REMARK  141  A    between atoms: _351  and  _353
REMARK  142  A    between atoms: _353  and  _354
REMARK  143  A    between atoms: _353  and  _356
REMARK  144  A    between atoms: _356  and  _357
REMARK  145  A    between atoms: _360  and  _362
REMARK  146  A    between atoms: _362  and  _363
REMARK  147  A    between atoms: _365  and  _367
REMARK  148  A    between atoms: _367  and  _368
REMARK  149  A    between atoms: _371  and  _373
REMARK  150  A    between atoms: _373  and  _374
REMARK  151  A    between atoms: _373  and  _376
REMARK  152  A    between atoms: _376  and  _377
REMARK  153  A    between atoms: _380  and  _382
REMARK  154  A    between atoms: _382  and  _383
REMARK  155  A    between atoms: _382  and  _385
REMARK  156  A    between atoms: _385  and  _386
REMARK  157  A    between atoms: _389  and  _391
REMARK  158  A    between atoms: _391  and  _392
REMARK  159  A    between atoms: _391  and  _394
REMARK  160  A    between atoms: _394  and  _395
REMARK  161  A    between atoms: _398  and  _400
REMARK  162  A    between atoms: _400  and  _401
REMARK  163  A    between atoms: _400  and  _403
REMARK  164  A    between atoms: _406  and  _408
REMARK  165  A    between atoms: _408  and  _409
REMARK  166  A    between atoms: _408  and  _411
REMARK  167  A    between atoms: _411  and  _412
REMARK  168  A    between atoms: _415  and  _417
REMARK  169  A    between atoms: _417  and  _418
REMARK  170  A    between atoms: _417  and  _420
REMARK  171  A    between atoms: _420  and  _421
REMARK  172  A    between atoms: _421  and  _422
REMARK  173  A    between atoms: _422  and  _423
REMARK  174  A    between atoms: _423  and  _424
REMARK  175  A    between atoms: _428  and  _430
REMARK  176  A    between atoms: _430  and  _431
REMARK  177  A    between atoms: _430  and  _433
REMARK  178  A    between atoms: _433  and  _434
REMARK  179  A    between atoms: _434  and  _435
REMARK  180  A    between atoms: _437  and  _439
REMARK  181  A    between atoms: _439  and  _440
REMARK  182  A    between atoms: _439  and  _442
REMARK  183  A    between atoms: _442  and  _443
REMARK  184  A    between atoms: _446  and  _448
REMARK  185  A    between atoms: _448  and  _449
REMARK  186  A    between atoms: _451  and  _453
REMARK  187  A    between atoms: _453  and  _454
REMARK  188  A    between atoms: _456  and  _458
REMARK  189  A    between atoms: _458  and  _459
REMARK  190  A    between atoms: _458  and  _461
REMARK  191  A    between atoms: _461  and  _462
REMARK  192  A    between atoms: _465  and  _467
REMARK  193  A    between atoms: _467  and  _468
REMARK  194  A    between atoms: _470  and  _472
REMARK  195  A    between atoms: _472  and  _473
REMARK  196  A    between atoms: _475  and  _477
REMARK  197  A    between atoms: _477  and  _478
REMARK  198  A    between atoms: _477  and  _480
REMARK  199  A    between atoms: _480  and  _481
REMARK  200  A    between atoms: _487  and  _489
REMARK  201  A    between atoms: _489  and  _490
REMARK  202  A    between atoms: _489  and  _492
REMARK  203  A    between atoms: _492  and  _493
REMARK  204  A    between atoms: _496  and  _498
REMARK  205  A    between atoms: _498  and  _499
REMARK  206  A    between atoms: _498  and  _501
REMARK  207  A    between atoms: _504  and  _506
REMARK  208  A    between atoms: _506  and  _507
REMARK  209  A    between atoms: _506  and  _509
REMARK  210  A    between atoms: _509  and  _510
REMARK  211  A    between atoms: _513  and  _515
REMARK  212  A    between atoms: _515  and  _516
REMARK  213  A    between atoms: _515  and  _518
REMARK  214  A    between atoms: _518  and  _519
REMARK  215  A    between atoms: _523  and  _524
REMARK  216  A    between atoms: _529  and  _531
REMARK  217  A    between atoms: _531  and  _532
REMARK  218  A    between atoms: _531  and  _534
REMARK  219  A    between atoms: _537  and  _539
REMARK  220  A    between atoms: _539  and  _540
REMARK  221  A    between atoms: _539  and  _542
REMARK  222  A    between atoms: _542  and  _543
REMARK  223  A    between atoms: _548  and  _550
REMARK  224  A    between atoms: _550  and  _551
REMARK  225  A    between atoms: _550  and  _553
REMARK  226  A    between atoms: _553  and  _554
REMARK  227  A    between atoms: _557  and  _559
REMARK  228  A    between atoms: _559  and  _560
REMARK  229  A    between atoms: _559  and  _562
REMARK  230  A    between atoms: _562  and  _563
REMARK  231  A    between atoms: _566  and  _568
REMARK  232  A    between atoms: _568  and  _569
REMARK  233  A    between atoms: _571  and  _573
REMARK  234  A    between atoms: _573  and  _574
REMARK  235  A    between atoms: _573  and  _576
REMARK  236  A    between atoms: _576  and  _577
REMARK  237  A    between atoms: _577  and  _578
REMARK  238  A    between atoms: _578  and  _579
REMARK  239  A    between atoms: _588  and  _590
REMARK  240  A    between atoms: _590  and  _591
REMARK  241  A    between atoms: _590  and  _593
REMARK  242  A    between atoms: _593  and  _594
REMARK                            x       y       z     vdW  Elec       q    Type
REMARK                         _______ _______ _______ _____ _____    ______ ____
ROOT
ATOM      1  O   HOH     1       6.988  15.537  25.475  0.00  0.00    +0.000 OA
ENDROOT
TORSDOF 0
REMARK  Name = ../refined-set-2016/4zip/4zip_pocket.pdb
REMARK  242 active torsions:
REMARK  status: ('A' for Active; 'I' for Inactive)
REMARK    1  A    between atoms: _1  and  _3
REMARK    2  A    between atoms: _3  and  _4
REMARK    3  A    between atoms: _3  and  _6
REMARK    4  A    between atoms: _6  and  _7
REMARK    5  A    between atoms: _7  and  _8
REMARK    6  A    between atoms: _8  and  _9
REMARK    7  A    between atoms: _19  and  _20
REMARK    8  A    between atoms: _25  and  _27
REMARK    9  A    between atoms: _27  and  _28
REMARK   10  A    between atoms: _27  and  _30
REMARK   11  A    between atoms: _30  and  _31
REMARK   12  A    between atoms: _34  and  _36
REMARK   13  A    between atoms: _36  and  _37
REMARK   14  A    between atoms: _36  and  _39
REMARK   15  A    between atoms: _39  and  _40
REMARK   16  A    between atoms: _43  and  _45
REMARK   17  A    between atoms: _45  and  _46
REMARK   18  A    between atoms: _45  and  _48
REMARK   19  A    between atoms: _48  and  _49
REMARK   20  A    between atoms: _52  and  _54
REMARK   21  A    between atoms: _54  and  _55
REMARK   22  A    between atoms: _54  and  _57
REMARK   23  A    between atoms: _57  and  _58
REMARK   24  A    between atoms: _61  and  _63
REMARK   25  A    between atoms: _63  and  _64
REMARK   26  A    between atoms: _63  and  _66
REMARK   27  A    between atoms: _66  and  _67
REMARK   28  A    between atoms: _70  and  _72
REMARK   29  A    between atoms: _72  and  _73
REMARK   30  A    between atoms: _75  and  _77
REMARK   31  A    between atoms: _77  and  _78
REMARK   32  A    between atoms: _81  and  _83
REMARK   33  A    between atoms: _83  and  _84
REMARK   34  A    between atoms: _83  and  _86
REMARK   35  A    between atoms: _86  and  _87
REMARK   36  A    between atoms: _90  and  _92
REMARK   37  A    between atoms: _92  and  _93
REMARK   38  A    between atoms: _92  and  _95
REMARK   39  A    between atoms: _95  and  _96
REMARK   40  A    between atoms: _99  and  _101
REMARK   41  A    between atoms: _101  and  _102
REMARK   42  A    between atoms: _101  and  _104
REMARK   43  A    between atoms: _104  and  _105
REMARK   44  A    between atoms: _108  and  _110
REMARK   45  A    between atoms: _110  and  _111
REMARK   46  A    between atoms: _110  and  _113
REMARK   47  A    between atoms: _116  and  _118
REMARK   48  A    between atoms: _118  and  _119
REMARK   49  A    between atoms: _118  and  _121
REMARK   50  A    between atoms: _121  and  _122
REMARK   51  A    between atoms: _122  and  _123
REMARK   52  A    between atoms: _123  and  _124
REMARK   53  A    between atoms: _124  and  _125
REMARK   54  A    between atoms: _129  and  _131
REMARK   55  A    between atoms: _131  and  _132
REMARK   56  A    between atoms: _131  and  _134
REMARK   57  A    between atoms: _134  and  _135
REMARK   58  A    between atoms: _135  and  _136
REMARK   59  A    between atoms: _138  and  _140
REMARK   60  A    between atoms: _140  and  _141
REMARK   61  A    between atoms: _140  and  _143
REMARK   62  A    between atoms: _143  and  _144
REMARK   63  A    between atoms: _147  and  _149
REMARK   64  A    between atoms: _149  and  _150
REMARK   65  A    between atoms: _152  and  _154
REMARK   66  A    between atoms: _154  and  _155
REMARK   67  A    between atoms: _157  and  _159
REMARK   68  A    between atoms: _159  and  _160
REMARK   69  A    between atoms: _159  and  _162
REMARK   70  A    between atoms: _162  and  _163
REMARK   71  A    between atoms: _166  and  _168
REMARK   72  A    between atoms: _168  and  _169
REMARK   73  A    between atoms: _171  and  _173
REMARK   74  A    between atoms: _173  and  _174
REMARK   75  A    between atoms: _176  and  _178
REMARK   76  A    between atoms: _178  and  _179
REMARK   77  A    between atoms: _178  and  _181
REMARK   78  A    between atoms: _181  and  _182
REMARK   79  A    between atoms: _188  and  _190
REMARK   80  A    between atoms: _190  and  _191
REMARK   81  A    between atoms: _190  and  _193
REMARK   82  A    between atoms: _193  and  _194
REMARK   83  A    between atoms: _197  and  _199
REMARK   84  A    between atoms: _199  and  _200
REMARK   85  A    between atoms: _199  and  _202
REMARK   86  A    between atoms: _205  and  _207
REMARK   87  A    between atoms: _207  and  _208
REMARK   88  A    between atoms: _207  and  _210
REMARK   89  A    between atoms: _210  and  _211
REMARK   90  A    between atoms: _215  and  _216
REMARK   91  A    between atoms: _221  and  _223
REMARK   92  A    between atoms: _223  and  _224
REMARK   93  A    between atoms: _223  and  _226
REMARK   94  A    between atoms: _226  and  _227
REMARK   95  A    between atoms: _231  and  _232
REMARK   96  A    between atoms: _237  and  _239
REMARK   97  A    between atoms: _239  and  _240
REMARK   98  A    between atoms: _239  and  _242
REMARK   99  A    between atoms: _245  and  _247
REMARK  100  A    between atoms: _247  and  _248
REMARK  101  A    between atoms: _247  and  _250
REMARK  102  A    between atoms: _250  and  _251
REMARK  103  A    between atoms: _256  and  _258
REMARK  104  A    between atoms: _258  and  _259
REMARK  105  A    between atoms: _258  and  _261
REMARK  106  A    between atoms: _261  and  _262
REMARK  107  A    between atoms: _265  and  _267
REMARK  108  A    between atoms: _267  and  _268
REMARK  109  A    between atoms: _267  and  _270
REMARK  110  A    between atoms: _270  and  _271
REMARK  111  A    between atoms: _274  and  _276
REMARK  112  A    between atoms: _276  and  _277
REMARK  113  A    between atoms: _279  and  _281
REMARK  114  A    between atoms: _281  and  _282
REMARK  115  A    between atoms: _281  and  _284
REMARK  116  A    between atoms: _284  and  _285
REMARK  117  A    between atoms: _285  and  _286
REMARK  118  A    between atoms: _286  and  _287
REMARK  119  A    between atoms: _296  and  _298
REMARK  120  A    between atoms: _298  and  _299
REMARK  121  A    between atoms: _298  and  _301
REMARK  122  A    between atoms: _301  and  _302
REMARK  123  A    between atoms: _307  and  _309
REMARK  124  A    between atoms: _309  and  _310
REMARK  125  A    between atoms: _309  and  _312
REMARK  126  A    between atoms: _312  and  _313
REMARK  127  A    between atoms: _313  and  _314
REMARK  128  A    between atoms: _314  and  _315
REMARK  129  A    between atoms: _324  and  _326
REMARK  130  A    between atoms: _326  and  _327
REMARK  131  A    between atoms: _326  and  _329
REMARK  132  A    between atoms: _329  and  _330
REMARK  133  A    between atoms: _333  and  _335
REMARK  134  A    between atoms: _335  and  _336
REMARK  135  A    between atoms: _335  and  _338
REMARK  136  A    between atoms: _338  and  _339
REMARK  137  A    between atoms: _342  and  _344
REMARK  138  A    between atoms: _344  and  _345
REMARK  139  A    between atoms: _344  and  _347
REMARK  140  A    between atoms: _347  and  _348
REMARK  141  A    between atoms: _351  and  _353
REMARK  142  A    between atoms: _353  and  _354
REMARK  143  A    between atoms: _353  and  _356
REMARK  144  A    between atoms: _356  and  _357
REMARK  145  A    between atoms: _360  and  _362
REMARK  146  A    between atoms: _362  and  _363
REMARK  147  A    between atoms: _365  and  _367
REMARK  148  A    between atoms: _367  and  _368
REMARK  149  A    between atoms: _371  and  _373
REMARK  150  A    between atoms: _373  and  _374
REMARK  151  A    between atoms: _373  and  _376
REMARK  152  A    between atoms: _376  and  _377
REMARK  153  A    between atoms: _380  and  _382
REMARK  154  A    between atoms: _382  and  _383
REMARK  155  A    between atoms: _382  and  _385
REMARK  156  A    between atoms: _385  and  _386
REMARK  157  A    between atoms: _389  and  _391
REMARK  158  A    between atoms: _391  and  _392
REMARK  159  A    between atoms: _391  and  _394
REMARK  160  A    between atoms: _394  and  _395
REMARK  161  A    between atoms: _398  and  _400
REMARK  162  A    between atoms: _400  and  _401
REMARK  163  A    between atoms: _400  and  _403
REMARK  164  A    between atoms: _406  and  _408
REMARK  165  A    between atoms: _408  and  _409
REMARK  166  A    between atoms: _408  and  _411
REMARK  167  A    between atoms: _411  and  _412
REMARK  168  A    between atoms: _415  and  _417
REMARK  169  A    between atoms: _417  and  _418
REMARK  170  A    between atoms: _417  and  _420
REMARK  171  A    between atoms: _420  and  _421
REMARK  172  A    between atoms: _421  and  _422
REMARK  173  A    between atoms: _422  and  _423
REMARK  174  A    between atoms: _423  and  _424
REMARK  175  A    between atoms: _428  and  _430
REMARK  176  A    between atoms: _430  and  _431
REMARK  177  A    between atoms: _430  and  _433
REMARK  178  A    between atoms: _433  and  _434
REMARK  179  A    between atoms: _434  and  _435
REMARK  180  A    between atoms: _437  and  _439
REMARK  181  A    between atoms: _439  and  _440
REMARK  182  A    between atoms: _439  and  _442
REMARK  183  A    between atoms: _442  and  _443
REMARK  184  A    between atoms: _446  and  _448
REMARK  185  A    between atoms: _448  and  _449
REMARK  186  A    between atoms: _451  and  _453
REMARK  187  A    between atoms: _453  and  _454
REMARK  188  A    between atoms: _456  and  _458
REMARK  189  A    between atoms: _458  and  _459
REMARK  190  A    between atoms: _458  and  _461
REMARK  191  A    between atoms: _461  and  _462
REMARK  192  A    between atoms: _465  and  _467
REMARK  193  A    between atoms: _467  and  _468
REMARK  194  A    between atoms: _470  and  _472
REMARK  195  A    between atoms: _472  and  _473
REMARK  196  A    between atoms: _475  and  _477
REMARK  197  A    between atoms: _477  and  _478
REMARK  198  A    between atoms: _477  and  _480
REMARK  199  A    between atoms: _480  and  _481
REMARK  200  A    between atoms: _487  and  _489
REMARK  201  A    between atoms: _489  and  _490
REMARK  202  A    between atoms: _489  and  _492
REMARK  203  A    between atoms: _492  and  _493
REMARK  204  A    between atoms: _496  and  _498
REMARK  205  A    between atoms: _498  and  _499
REMARK  206  A    between atoms: _498  and  _501
REMARK  207  A    between atoms: _504  and  _506
REMARK  208  A    between atoms: _506  and  _507
REMARK  209  A    between atoms: _506  and  _509
REMARK  210  A    between atoms: _509  and  _510
REMARK  211  A    between atoms: _513  and  _515
REMARK  212  A    between atoms: _515  and  _516
REMARK  213  A    between atoms: _515  and  _518
REMARK  214  A    between atoms: _518  and  _519
REMARK  215  A    between atoms: _523  and  _524
REMARK  216  A    between atoms: _529  and  _531
REMARK  217  A    between atoms: _531  and  _532
REMARK  218  A    between atoms: _531  and  _534
REMARK  219  A    between atoms: _537  and  _539
REMARK  220  A    between atoms: _539  and  _540
REMARK  221  A    between atoms: _539  and  _542
REMARK  222  A    between atoms: _542  and  _543
REMARK  223  A    between atoms: _548  and  _550
REMARK  224  A    between atoms: _550  and  _551
REMARK  225  A    between atoms: _550  and  _553
REMARK  226  A    between atoms: _553  and  _554
REMARK  227  A    between atoms: _557  and  _559
REMARK  228  A    between atoms: _559  and  _560
REMARK  229  A    between atoms: _559  and  _562
REMARK  230  A    between atoms: _562  and  _563
REMARK  231  A    between atoms: _566  and  _568
REMARK  232  A    between atoms: _568  and  _569
REMARK  233  A    between atoms: _571  and  _573
REMARK  234  A    between atoms: _573  and  _574
REMARK  235  A    between atoms: _573  and  _576
REMARK  236  A    between atoms: _576  and  _577
REMARK  237  A    between atoms: _577  and  _578
REMARK  238  A    between atoms: _578  and  _579
REMARK  239  A    between atoms: _588  and  _590
REMARK  240  A    between atoms: _590  and  _591
REMARK  241  A    between atoms: _590  and  _593
REMARK  242  A    between atoms: _593  and  _594
REMARK                            x       y       z     vdW  Elec       q    Type
REMARK                         _______ _______ _______ _____ _____    ______ ____
ROOT
ATOM      1  O   HOH     1      15.740  15.458  11.610  0.00  0.00    +0.000 OA
ENDROOT
TORSDOF 0
REMARK  Name = ../refined-set-2016/4zip/4zip_pocket.pdb
REMARK  242 active torsions:
REMARK  status: ('A' for Active; 'I' for Inactive)
REMARK    1  A    between atoms: _1  and  _3
REMARK    2  A    between atoms: _3  and  _4
REMARK    3  A    between atoms: _3  and  _6
REMARK    4  A    between atoms: _6  and  _7
REMARK    5  A    between atoms: _7  and  _8
REMARK    6  A    between atoms: _8  and  _9
REMARK    7  A    between atoms: _19  and  _20
REMARK    8  A    between atoms: _25  and  _27
REMARK    9  A    between atoms: _27  and  _28
REMARK   10  A    between atoms: _27  and  _30
REMARK   11  A    between atoms: _30  and  _31
REMARK   12  A    between atoms: _34  and  _36
REMARK   13  A    between atoms: _36  and  _37
REMARK   14  A    between atoms: _36  and  _39
REMARK   15  A    between atoms: _39  and  _40
REMARK   16  A    between atoms: _43  and  _45
REMARK   17  A    between atoms: _45  and  _46
REMARK   18  A    between atoms: _45  and  _48
REMARK   19  A    between atoms: _48  and  _49
REMARK   20  A    between atoms: _52  and  _54
REMARK   21  A    between atoms: _54  and  _55
REMARK   22  A    between atoms: _54  and  _57
REMARK   23  A    between atoms: _57  and  _58
REMARK   24  A    between atoms: _61  and  _63
REMARK   25  A    between atoms: _63  and  _64
REMARK   26  A    between atoms: _63  and  _66
REMARK   27  A    between atoms: _66  and  _67
REMARK   28  A    between atoms: _70  and  _72
REMARK   29  A    between atoms: _72  and  _73
REMARK   30  A    between atoms: _75  and  _77
REMARK   31  A    between atoms: _77  and  _78
REMARK   32  A    between atoms: _81  and  _83
REMARK   33  A    between atoms: _83  and  _84
REMARK   34  A    between atoms: _83  and  _86
REMARK   35  A    between atoms: _86  and  _87
REMARK   36  A    between atoms: _90  and  _92
REMARK   37  A    between atoms: _92  and  _93
REMARK   38  A    between atoms: _92  and  _95
REMARK   39  A    between atoms: _95  and  _96
REMARK   40  A    between atoms: _99  and  _101
REMARK   41  A    between atoms: _101  and  _102
REMARK   42  A    between atoms: _101  and  _104
REMARK   43  A    between atoms: _104  and  _105
REMARK   44  A    between atoms: _108  and  _110
REMARK   45  A    between atoms: _110  and  _111
REMARK   46  A    between atoms: _110  and  _113
REMARK   47  A    between atoms: _116  and  _118
REMARK   48  A    between atoms: _118  and  _119
REMARK   49  A    between atoms: _118  and  _121
REMARK   50  A    between atoms: _121  and  _122
REMARK   51  A    between atoms: _122  and  _123
REMARK   52  A    between atoms: _123  and  _124
REMARK   53  A    between atoms: _124  and  _125
REMARK   54  A    between atoms: _129  and  _131
REMARK   55  A    between atoms: _131  and  _132
REMARK   56  A    between atoms: _131  and  _134
REMARK   57  A    between atoms: _134  and  _135
REMARK   58  A    between atoms: _135  and  _136
REMARK   59  A    between atoms: _138  and  _140
REMARK   60  A    between atoms: _140  and  _141
REMARK   61  A    between atoms: _140  and  _143
REMARK   62  A    between atoms: _143  and  _144
REMARK   63  A    between atoms: _147  and  _149
REMARK   64  A    between atoms: _149  and  _150
REMARK   65  A    between atoms: _152  and  _154
REMARK   66  A    between atoms: _154  and  _155
REMARK   67  A    between atoms: _157  and  _159
REMARK   68  A    between atoms: _159  and  _160
REMARK   69  A    between atoms: _159  and  _162
REMARK   70  A    between atoms: _162  and  _163
REMARK   71  A    between atoms: _166  and  _168
REMARK   72  A    between atoms: _168  and  _169
REMARK   73  A    between atoms: _171  and  _173
REMARK   74  A    between atoms: _173  and  _174
REMARK   75  A    between atoms: _176  and  _178
REMARK   76  A    between atoms: _178  and  _179
REMARK   77  A    between atoms: _178  and  _181
REMARK   78  A    between atoms: _181  and  _182
REMARK   79  A    between atoms: _188  and  _190
REMARK   80  A    between atoms: _190  and  _191
REMARK   81  A    between atoms: _190  and  _193
REMARK   82  A    between atoms: _193  and  _194
REMARK   83  A    between atoms: _197  and  _199
REMARK   84  A    between atoms: _199  and  _200
REMARK   85  A    between atoms: _199  and  _202
REMARK   86  A    between atoms: _205  and  _207
REMARK   87  A    between atoms: _207  and  _208
REMARK   88  A    between atoms: _207  and  _210
REMARK   89  A    between atoms: _210  and  _211
REMARK   90  A    between atoms: _215  and  _216
REMARK   91  A    between atoms: _221  and  _223
REMARK   92  A    between atoms: _223  and  _224
REMARK   93  A    between atoms: _223  and  _226
REMARK   94  A    between atoms: _226  and  _227
REMARK   95  A    between atoms: _231  and  _232
REMARK   96  A    between atoms: _237  and  _239
REMARK   97  A    between atoms: _239  and  _240
REMARK   98  A    between atoms: _239  and  _242
REMARK   99  A    between atoms: _245  and  _247
REMARK  100  A    between atoms: _247  and  _248
REMARK  101  A    between atoms: _247  and  _250
REMARK  102  A    between atoms: _250  and  _251
REMARK  103  A    between atoms: _256  and  _258
REMARK  104  A    between atoms: _258  and  _259
REMARK  105  A    between atoms: _258  and  _261
REMARK  106  A    between atoms: _261  and  _262
REMARK  107  A    between atoms: _265  and  _267
REMARK  108  A    between atoms: _267  and  _268
REMARK  109  A    between atoms: _267  and  _270
REMARK  110  A    between atoms: _270  and  _271
REMARK  111  A    between atoms: _274  and  _276
REMARK  112  A    between atoms: _276  and  _277
REMARK  113  A    between atoms: _279  and  _281
REMARK  114  A    between atoms: _281  and  _282
REMARK  115  A    between atoms: _281  and  _284
REMARK  116  A    between atoms: _284  and  _285
REMARK  117  A    between atoms: _285  and  _286
REMARK  118  A    between atoms: _286  and  _287
REMARK  119  A    between atoms: _296  and  _298
REMARK  120  A    between atoms: _298  and  _299
REMARK  121  A    between atoms: _298  and  _301
REMARK  122  A    between atoms: _301  and  _302
REMARK  123  A    between atoms: _307  and  _309
REMARK  124  A    between atoms: _309  and  _310
REMARK  125  A    between atoms: _309  and  _312
REMARK  126  A    between atoms: _312  and  _313
REMARK  127  A    between atoms: _313  and  _314
REMARK  128  A    between atoms: _314  and  _315
REMARK  129  A    between atoms: _324  and  _326
REMARK  130  A    between atoms: _326  and  _327
REMARK  131  A    between atoms: _326  and  _329
REMARK  132  A    between atoms: _329  and  _330
REMARK  133  A    between atoms: _333  and  _335
REMARK  134  A    between atoms: _335  and  _336
REMARK  135  A    between atoms: _335  and  _338
REMARK  136  A    between atoms: _338  and  _339
REMARK  137  A    between atoms: _342  and  _344
REMARK  138  A    between atoms: _344  and  _345
REMARK  139  A    between atoms: _344  and  _347
REMARK  140  A    between atoms: _347  and  _348
REMARK  141  A    between atoms: _351  and  _353
REMARK  142  A    between atoms: _353  and  _354
REMARK  143  A    between atoms: _353  and  _356
REMARK  144  A    between atoms: _356  and  _357
REMARK  145  A    between atoms: _360  and  _362
REMARK  146  A    between atoms: _362  and  _363
REMARK  147  A    between atoms: _365  and  _367
REMARK  148  A    between atoms: _367  and  _368
REMARK  149  A    between atoms: _371  and  _373
REMARK  150  A    between atoms: _373  and  _374
REMARK  151  A    between atoms: _373  and  _376
REMARK  152  A    between atoms: _376  and  _377
REMARK  153  A    between atoms: _380  and  _382
REMARK  154  A    between atoms: _382  and  _383
REMARK  155  A    between atoms: _382  and  _385
REMARK  156  A    between atoms: _385  and  _386
REMARK  157  A    between atoms: _389  and  _391
REMARK  158  A    between atoms: _391  and  _392
REMARK  159  A    between atoms: _391  and  _394
REMARK  160  A    between atoms: _394  and  _395
REMARK  161  A    between atoms: _398  and  _400
REMARK  162  A    between atoms: _400  and  _401
REMARK  163  A    between atoms: _400  and  _403
REMARK  164  A    between atoms: _406  and  _408
REMARK  165  A    between atoms: _408  and  _409
REMARK  166  A    between atoms: _408  and  _411
REMARK  167  A    between atoms: _411  and  _412
REMARK  168  A    between atoms: _415  and  _417
REMARK  169  A    between atoms: _417  and  _418
REMARK  170  A    between atoms: _417  and  _420
REMARK  171  A    between atoms: _420  and  _421
REMARK  172  A    between atoms: _421  and  _422
REMARK  173  A    between atoms: _422  and  _423
REMARK  174  A    between atoms: _423  and  _424
REMARK  175  A    between atoms: _428  and  _430
REMARK  176  A    between atoms: _430  and  _431
REMARK  177  A    between atoms: _430  and  _433
REMARK  178  A    between atoms: _433  and  _434
REMARK  179  A    between atoms: _434  and  _435
REMARK  180  A    between atoms: _437  and  _439
REMARK  181  A    between atoms: _439  and  _440
REMARK  182  A    between atoms: _439  and  _442
REMARK  183  A    between atoms: _442  and  _443
REMARK  184  A    between atoms: _446  and  _448
REMARK  185  A    between atoms: _448  and  _449
REMARK  186  A    between atoms: _451  and  _453
REMARK  187  A    between atoms: _453  and  _454
REMARK  188  A    between atoms: _456  and  _458
REMARK  189  A    between atoms: _458  and  _459
REMARK  190  A    between atoms: _458  and  _461
REMARK  191  A    between atoms: _461  and  _462
REMARK  192  A    between atoms: _465  and  _467
REMARK  193  A    between atoms: _467  and  _468
REMARK  194  A    between atoms: _470  and  _472
REMARK  195  A    between atoms: _472  and  _473
REMARK  196  A    between atoms: _475  and  _477
REMARK  197  A    between atoms: _477  and  _478
REMARK  198  A    between atoms: _477  and  _480
REMARK  199  A    between atoms: _480  and  _481
REMARK  200  A    between atoms: _487  and  _489
REMARK  201  A    between atoms: _489  and  _490
REMARK  202  A    between atoms: _489  and  _492
REMARK  203  A    between atoms: _492  and  _493
REMARK  204  A    between atoms: _496  and  _498
REMARK  205  A    between atoms: _498  and  _499
REMARK  206  A    between atoms: _498  and  _501
REMARK  207  A    between atoms: _504  and  _506
REMARK  208  A    between atoms: _506  and  _507
REMARK  209  A    between atoms: _506  and  _509
REMARK  210  A    between atoms: _509  and  _510
REMARK  211  A    between atoms: _513  and  _515
REMARK  212  A    between atoms: _515  and  _516
REMARK  213  A    between atoms: _515  and  _518
REMARK  214  A    between atoms: _518  and  _519
REMARK  215  A    between atoms: _523  and  _524
REMARK  216  A    between atoms: _529  and  _531
REMARK  217  A    between atoms: _531  and  _532
REMARK  218  A    between atoms: _531  and  _534
REMARK  219  A    between atoms: _537  and  _539
REMARK  220  A    between atoms: _539  and  _540
REMARK  221  A    between atoms: _539  and  _542
REMARK  222  A    between atoms: _542  and  _543
REMARK  223  A    between atoms: _548  and  _550
REMARK  224  A    between atoms: _550  and  _551
REMARK  225  A    between atoms: _550  and  _553
REMARK  226  A    between atoms: _553  and  _554
REMARK  227  A    between atoms: _557  and  _559
REMARK  228  A    between atoms: _559  and  _560
REMARK  229  A    between atoms: _559  and  _562
REMARK  230  A    between atoms: _562  and  _563
REMARK  231  A    between atoms: _566  and  _568
REMARK  232  A    between atoms: _568  and  _569
REMARK  233  A    between atoms: _571  and  _573
REMARK  234  A    between atoms: _573  and  _574
REMARK  235  A    between atoms: _573  and  _576
REMARK  236  A    between atoms: _576  and  _577
REMARK  237  A    between atoms: _577  and  _578
REMARK  238  A    between atoms: _578  and  _579
REMARK  239  A    between atoms: _588  and  _590
REMARK  240  A    between atoms: _590  and  _591
REMARK  241  A    between atoms: _590  and  _593
REMARK  242  A    between atoms: _593  and  _594
REMARK                            x       y       z     vdW  Elec       q    Type
REMARK                         _______ _______ _______ _____ _____    ______ ____
ROOT
ATOM      1  O   HOH     1       4.182  19.064  22.836  0.00  0.00    +0.000 OA
ENDROOT
TORSDOF 0
REMARK  Name = ../refined-set-2016/4zip/4zip_pocket.pdb
REMARK  242 active torsions:
REMARK  status: ('A' for Active; 'I' for Inactive)
REMARK    1  A    between atoms: _1  and  _3
REMARK    2  A    between atoms: _3  and  _4
REMARK    3  A    between atoms: _3  and  _6
REMARK    4  A    between atoms: _6  and  _7
REMARK    5  A    between atoms: _7  and  _8
REMARK    6  A    between atoms: _8  and  _9
REMARK    7  A    between atoms: _19  and  _20
REMARK    8  A    between atoms: _25  and  _27
REMARK    9  A    between atoms: _27  and  _28
REMARK   10  A    between atoms: _27  and  _30
REMARK   11  A    between atoms: _30  and  _31
REMARK   12  A    between atoms: _34  and  _36
REMARK   13  A    between atoms: _36  and  _37
REMARK   14  A    between atoms: _36  and  _39
REMARK   15  A    between atoms: _39  and  _40
REMARK   16  A    between atoms: _43  and  _45
REMARK   17  A    between atoms: _45  and  _46
REMARK   18  A    between atoms: _45  and  _48
REMARK   19  A    between atoms: _48  and  _49
REMARK   20  A    between atoms: _52  and  _54
REMARK   21  A    between atoms: _54  and  _55
REMARK   22  A    between atoms: _54  and  _57
REMARK   23  A    between atoms: _57  and  _58
REMARK   24  A    between atoms: _61  and  _63
REMARK   25  A    between atoms: _63  and  _64
REMARK   26  A    between atoms: _63  and  _66
REMARK   27  A    between atoms: _66  and  _67
REMARK   28  A    between atoms: _70  and  _72
REMARK   29  A    between atoms: _72  and  _73
REMARK   30  A    between atoms: _75  and  _77
REMARK   31  A    between atoms: _77  and  _78
REMARK   32  A    between atoms: _81  and  _83
REMARK   33  A    between atoms: _83  and  _84
REMARK   34  A    between atoms: _83  and  _86
REMARK   35  A    between atoms: _86  and  _87
REMARK   36  A    between atoms: _90  and  _92
REMARK   37  A    between atoms: _92  and  _93
REMARK   38  A    between atoms: _92  and  _95
REMARK   39  A    between atoms: _95  and  _96
REMARK   40  A    between atoms: _99  and  _101
REMARK   41  A    between atoms: _101  and  _102
REMARK   42  A    between atoms: _101  and  _104
REMARK   43  A    between atoms: _104  and  _105
REMARK   44  A    between atoms: _108  and  _110
REMARK   45  A    between atoms: _110  and  _111
REMARK   46  A    between atoms: _110  and  _113
REMARK   47  A    between atoms: _116  and  _118
REMARK   48  A    between atoms: _118  and  _119
REMARK   49  A    between atoms: _118  and  _121
REMARK   50  A    between atoms: _121  and  _122
REMARK   51  A    between atoms: _122  and  _123
REMARK   52  A    between atoms: _123  and  _124
REMARK   53  A    between atoms: _124  and  _125
REMARK   54  A    between atoms: _129  and  _131
REMARK   55  A    between atoms: _131  and  _132
REMARK   56  A    between atoms: _131  and  _134
REMARK   57  A    between atoms: _134  and  _135
REMARK   58  A    between atoms: _135  and  _136
REMARK   59  A    between atoms: _138  and  _140
REMARK   60  A    between atoms: _140  and  _141
REMARK   61  A    between atoms: _140  and  _143
REMARK   62  A    between atoms: _143  and  _144
REMARK   63  A    between atoms: _147  and  _149
REMARK   64  A    between atoms: _149  and  _150
REMARK   65  A    between atoms: _152  and  _154
REMARK   66  A    between atoms: _154  and  _155
REMARK   67  A    between atoms: _157  and  _159
REMARK   68  A    between atoms: _159  and  _160
REMARK   69  A    between atoms: _159  and  _162
REMARK   70  A    between atoms: _162  and  _163
REMARK   71  A    between atoms: _166  and  _168
REMARK   72  A    between atoms: _168  and  _169
REMARK   73  A    between atoms: _171  and  _173
REMARK   74  A    between atoms: _173  and  _174
REMARK   75  A    between atoms: _176  and  _178
REMARK   76  A    between atoms: _178  and  _179
REMARK   77  A    between atoms: _178  and  _181
REMARK   78  A    between atoms: _181  and  _182
REMARK   79  A    between atoms: _188  and  _190
REMARK   80  A    between atoms: _190  and  _191
REMARK   81  A    between atoms: _190  and  _193
REMARK   82  A    between atoms: _193  and  _194
REMARK   83  A    between atoms: _197  and  _199
REMARK   84  A    between atoms: _199  and  _200
REMARK   85  A    between atoms: _199  and  _202
REMARK   86  A    between atoms: _205  and  _207
REMARK   87  A    between atoms: _207  and  _208
REMARK   88  A    between atoms: _207  and  _210
REMARK   89  A    between atoms: _210  and  _211
REMARK   90  A    between atoms: _215  and  _216
REMARK   91  A    between atoms: _221  and  _223
REMARK   92  A    between atoms: _223  and  _224
REMARK   93  A    between atoms: _223  and  _226
REMARK   94  A    between atoms: _226  and  _227
REMARK   95  A    between atoms: _231  and  _232
REMARK   96  A    between atoms: _237  and  _239
REMARK   97  A    between atoms: _239  and  _240
REMARK   98  A    between atoms: _239  and  _242
REMARK   99  A    between atoms: _245  and  _247
REMARK  100  A    between atoms: _247  and  _248
REMARK  101  A    between atoms: _247  and  _250
REMARK  102  A    between atoms: _250  and  _251
REMARK  103  A    between atoms: _256  and  _258
REMARK  104  A    between atoms: _258  and  _259
REMARK  105  A    between atoms: _258  and  _261
REMARK  106  A    between atoms: _261  and  _262
REMARK  107  A    between atoms: _265  and  _267
REMARK  108  A    between atoms: _267  and  _268
REMARK  109  A    between atoms: _267  and  _270
REMARK  110  A    between atoms: _270  and  _271
REMARK  111  A    between atoms: _274  and  _276
REMARK  112  A    between atoms: _276  and  _277
REMARK  113  A    between atoms: _279  and  _281
REMARK  114  A    between atoms: _281  and  _282
REMARK  115  A    between atoms: _281  and  _284
REMARK  116  A    between atoms: _284  and  _285
REMARK  117  A    between atoms: _285  and  _286
REMARK  118  A    between atoms: _286  and  _287
REMARK  119  A    between atoms: _296  and  _298
REMARK  120  A    between atoms: _298  and  _299
REMARK  121  A    between atoms: _298  and  _301
REMARK  122  A    between atoms: _301  and  _302
REMARK  123  A    between atoms: _307  and  _309
REMARK  124  A    between atoms: _309  and  _310
REMARK  125  A    between atoms: _309  and  _312
REMARK  126  A    between atoms: _312  and  _313
REMARK  127  A    between atoms: _313  and  _314
REMARK  128  A    between atoms: _314  and  _315
REMARK  129  A    between atoms: _324  and  _326
REMARK  130  A    between atoms: _326  and  _327
REMARK  131  A    between atoms: _326  and  _329
REMARK  132  A    between atoms: _329  and  _330
REMARK  133  A    between atoms: _333  and  _335
REMARK  134  A    between atoms: _335  and  _336
REMARK  135  A    between atoms: _335  and  _338
REMARK  136  A    between atoms: _338  and  _339
REMARK  137  A    between atoms: _342  and  _344
REMARK  138  A    between atoms: _344  and  _345
REMARK  139  A    between atoms: _344  and  _347
REMARK  140  A    between atoms: _347  and  _348
REMARK  141  A    between atoms: _351  and  _353
REMARK  142  A    between atoms: _353  and  _354
REMARK  143  A    between atoms: _353  and  _356
REMARK  144  A    between atoms: _356  and  _357
REMARK  145  A    between atoms: _360  and  _362
REMARK  146  A    between atoms: _362  and  _363
REMARK  147  A    between atoms: _365  and  _367
REMARK  148  A    between atoms: _367  and  _368
REMARK  149  A    between atoms: _371  and  _373
REMARK  150  A    between atoms: _373  and  _374
REMARK  151  A    between atoms: _373  and  _376
REMARK  152  A    between atoms: _376  and  _377
REMARK  153  A    between atoms: _380  and  _382
REMARK  154  A    between atoms: _382  and  _383
REMARK  155  A    between atoms: _382  and  _385
REMARK  156  A    between atoms: _385  and  _386
REMARK  157  A    between atoms: _389  and  _391
REMARK  158  A    between atoms: _391  and  _392
REMARK  159  A    between atoms: _391  and  _394
REMARK  160  A    between atoms: _394  and  _395
REMARK  161  A    between atoms: _398  and  _400
REMARK  162  A    between atoms: _400  and  _401
REMARK  163  A    between atoms: _400  and  _403
REMARK  164  A    between atoms: _406  and  _408
REMARK  165  A    between atoms: _408  and  _409
REMARK  166  A    between atoms: _408  and  _411
REMARK  167  A    between atoms: _411  and  _412
REMARK  168  A    between atoms: _415  and  _417
REMARK  169  A    between atoms: _417  and  _418
REMARK  170  A    between atoms: _417  and  _420
REMARK  171  A    between atoms: _420  and  _421
REMARK  172  A    between atoms: _421  and  _422
REMARK  173  A    between atoms: _422  and  _423
REMARK  174  A    between atoms: _423  and  _424
REMARK  175  A    between atoms: _428  and  _430
REMARK  176  A    between atoms: _430  and  _431
REMARK  177  A    between atoms: _430  and  _433
REMARK  178  A    between atoms: _433  and  _434
REMARK  179  A    between atoms: _434  and  _435
REMARK  180  A    between atoms: _437  and  _439
REMARK  181  A    between atoms: _439  and  _440
REMARK  182  A    between atoms: _439  and  _442
REMARK  183  A    between atoms: _442  and  _443
REMARK  184  A    between atoms: _446  and  _448
REMARK  185  A    between atoms: _448  and  _449
REMARK  186  A    between atoms: _451  and  _453
REMARK  187  A    between atoms: _453  and  _454
REMARK  188  A    between atoms: _456  and  _458
REMARK  189  A    between atoms: _458  and  _459
REMARK  190  A    between atoms: _458  and  _461
REMARK  191  A    between atoms: _461  and  _462
REMARK  192  A    between atoms: _465  and  _467
REMARK  193  A    between atoms: _467  and  _468
REMARK  194  A    between atoms: _470  and  _472
REMARK  195  A    between atoms: _472  and  _473
REMARK  196  A    between atoms: _475  and  _477
REMARK  197  A    between atoms: _477  and  _478
REMARK  198  A    between atoms: _477  and  _480
REMARK  199  A    between atoms: _480  and  _481
REMARK  200  A    between atoms: _487  and  _489
REMARK  201  A    between atoms: _489  and  _490
REMARK  202  A    between atoms: _489  and  _492
REMARK  203  A    between atoms: _492  and  _493
REMARK  204  A    between atoms: _496  and  _498
REMARK  205  A    between atoms: _498  and  _499
REMARK  206  A    between atoms: _498  and  _501
REMARK  207  A    between atoms: _504  and  _506
REMARK  208  A    between atoms: _506  and  _507
REMARK  209  A    between atoms: _506  and  _509
REMARK  210  A    between atoms: _509  and  _510
REMARK  211  A    between atoms: _513  and  _515
REMARK  212  A    between atoms: _515  and  _516
REMARK  213  A    between atoms: _515  and  _518
REMARK  214  A    between atoms: _518  and  _519
REMARK  215  A    between atoms: _523  and  _524
REMARK  216  A    between atoms: _529  and  _531
REMARK  217  A    between atoms: _531  and  _532
REMARK  218  A    between atoms: _531  and  _534
REMARK  219  A    between atoms: _537  and  _539
REMARK  220  A    between atoms: _539  and  _540
REMARK  221  A    between atoms: _539  and  _542
REMARK  222  A    between atoms: _542  and  _543
REMARK  223  A    between atoms: _548  and  _550
REMARK  224  A    between atoms: _550  and  _551
REMARK  225  A    between atoms: _550  and  _553
REMARK  226  A    between atoms: _553  and  _554
REMARK  227  A    between atoms: _557  and  _559
REMARK  228  A    between atoms: _559  and  _560
REMARK  229  A    between atoms: _559  and  _562
REMARK  230  A    between atoms: _562  and  _563
REMARK  231  A    between atoms: _566  and  _568
REMARK  232  A    between atoms: _568  and  _569
REMARK  233  A    between atoms: _571  and  _573
REMARK  234  A    between atoms: _573  and  _574
REMARK  235  A    between atoms: _573  and  _576
REMARK  236  A    between atoms: _576  and  _577
REMARK  237  A    between atoms: _577  and  _578
REMARK  238  A    between atoms: _578  and  _579
REMARK  239  A    between atoms: _588  and  _590
REMARK  240  A    between atoms: _590  and  _591
REMARK  241  A    between atoms: _590  and  _593
REMARK  242  A    between atoms: _593  and  _594
REMARK                            x       y       z     vdW  Elec       q    Type
REMARK                         _______ _______ _______ _____ _____    ______ ____
ROOT
ATOM      1  O   HOH     1       8.581  21.959  16.875  0.00  0.00    +0.000 OA
ENDROOT
TORSDOF 0
REMARK  Name = ../refined-set-2016/4zip/4zip_pocket.pdb
REMARK  242 active torsions:
REMARK  status: ('A' for Active; 'I' for Inactive)
REMARK    1  A    between atoms: _1  and  _3
REMARK    2  A    between atoms: _3  and  _4
REMARK    3  A    between atoms: _3  and  _6
REMARK    4  A    between atoms: _6  and  _7
REMARK    5  A    between atoms: _7  and  _8
REMARK    6  A    between atoms: _8  and  _9
REMARK    7  A    between atoms: _19  and  _20
REMARK    8  A    between atoms: _25  and  _27
REMARK    9  A    between atoms: _27  and  _28
REMARK   10  A    between atoms: _27  and  _30
REMARK   11  A    between atoms: _30  and  _31
REMARK   12  A    between atoms: _34  and  _36
REMARK   13  A    between atoms: _36  and  _37
REMARK   14  A    between atoms: _36  and  _39
REMARK   15  A    between atoms: _39  and  _40
REMARK   16  A    between atoms: _43  and  _45
REMARK   17  A    between atoms: _45  and  _46
REMARK   18  A    between atoms: _45  and  _48
REMARK   19  A    between atoms: _48  and  _49
REMARK   20  A    between atoms: _52  and  _54
REMARK   21  A    between atoms: _54  and  _55
REMARK   22  A    between atoms: _54  and  _57
REMARK   23  A    between atoms: _57  and  _58
REMARK   24  A    between atoms: _61  and  _63
REMARK   25  A    between atoms: _63  and  _64
REMARK   26  A    between atoms: _63  and  _66
REMARK   27  A    between atoms: _66  and  _67
REMARK   28  A    between atoms: _70  and  _72
REMARK   29  A    between atoms: _72  and  _73
REMARK   30  A    between atoms: _75  and  _77
REMARK   31  A    between atoms: _77  and  _78
REMARK   32  A    between atoms: _81  and  _83
REMARK   33  A    between atoms: _83  and  _84
REMARK   34  A    between atoms: _83  and  _86
REMARK   35  A    between atoms: _86  and  _87
REMARK   36  A    between atoms: _90  and  _92
REMARK   37  A    between atoms: _92  and  _93
REMARK   38  A    between atoms: _92  and  _95
REMARK   39  A    between atoms: _95  and  _96
REMARK   40  A    between atoms: _99  and  _101
REMARK   41  A    between atoms: _101  and  _102
REMARK   42  A    between atoms: _101  and  _104
REMARK   43  A    between atoms: _104  and  _105
REMARK   44  A    between atoms: _108  and  _110
REMARK   45  A    between atoms: _110  and  _111
REMARK   46  A    between atoms: _110  and  _113
REMARK   47  A    between atoms: _116  and  _118
REMARK   48  A    between atoms: _118  and  _119
REMARK   49  A    between atoms: _118  and  _121
REMARK   50  A    between atoms: _121  and  _122
REMARK   51  A    between atoms: _122  and  _123
REMARK   52  A    between atoms: _123  and  _124
REMARK   53  A    between atoms: _124  and  _125
REMARK   54  A    between atoms: _129  and  _131
REMARK   55  A    between atoms: _131  and  _132
REMARK   56  A    between atoms: _131  and  _134
REMARK   57  A    between atoms: _134  and  _135
REMARK   58  A    between atoms: _135  and  _136
REMARK   59  A    between atoms: _138  and  _140
REMARK   60  A    between atoms: _140  and  _141
REMARK   61  A    between atoms: _140  and  _143
REMARK   62  A    between atoms: _143  and  _144
REMARK   63  A    between atoms: _147  and  _149
REMARK   64  A    between atoms: _149  and  _150
REMARK   65  A    between atoms: _152  and  _154
REMARK   66  A    between atoms: _154  and  _155
REMARK   67  A    between atoms: _157  and  _159
REMARK   68  A    between atoms: _159  and  _160
REMARK   69  A    between atoms: _159  and  _162
REMARK   70  A    between atoms: _162  and  _163
REMARK   71  A    between atoms: _166  and  _168
REMARK   72  A    between atoms: _168  and  _169
REMARK   73  A    between atoms: _171  and  _173
REMARK   74  A    between atoms: _173  and  _174
REMARK   75  A    between atoms: _176  and  _178
REMARK   76  A    between atoms: _178  and  _179
REMARK   77  A    between atoms: _178  and  _181
REMARK   78  A    between atoms: _181  and  _182
REMARK   79  A    between atoms: _188  and  _190
REMARK   80  A    between atoms: _190  and  _191
REMARK   81  A    between atoms: _190  and  _193
REMARK   82  A    between atoms: _193  and  _194
REMARK   83  A    between atoms: _197  and  _199
REMARK   84  A    between atoms: _199  and  _200
REMARK   85  A    between atoms: _199  and  _202
REMARK   86  A    between atoms: _205  and  _207
REMARK   87  A    between atoms: _207  and  _208
REMARK   88  A    between atoms: _207  and  _210
REMARK   89  A    between atoms: _210  and  _211
REMARK   90  A    between atoms: _215  and  _216
REMARK   91  A    between atoms: _221  and  _223
REMARK   92  A    between atoms: _223  and  _224
REMARK   93  A    between atoms: _223  and  _226
REMARK   94  A    between atoms: _226  and  _227
REMARK   95  A    between atoms: _231  and  _232
REMARK   96  A    between atoms: _237  and  _239
REMARK   97  A    between atoms: _239  and  _240
REMARK   98  A    between atoms: _239  and  _242
REMARK   99  A    between atoms: _245  and  _247
REMARK  100  A    between atoms: _247  and  _248
REMARK  101  A    between atoms: _247  and  _250
REMARK  102  A    between atoms: _250  and  _251
REMARK  103  A    between atoms: _256  and  _258
REMARK  104  A    between atoms: _258  and  _259
REMARK  105  A    between atoms: _258  and  _261
REMARK  106  A    between atoms: _261  and  _262
REMARK  107  A    between atoms: _265  and  _267
REMARK  108  A    between atoms: _267  and  _268
REMARK  109  A    between atoms: _267  and  _270
REMARK  110  A    between atoms: _270  and  _271
REMARK  111  A    between atoms: _274  and  _276
REMARK  112  A    between atoms: _276  and  _277
REMARK  113  A    between atoms: _279  and  _281
REMARK  114  A    between atoms: _281  and  _282
REMARK  115  A    between atoms: _281  and  _284
REMARK  116  A    between atoms: _284  and  _285
REMARK  117  A    between atoms: _285  and  _286
REMARK  118  A    between atoms: _286  and  _287
REMARK  119  A    between atoms: _296  and  _298
REMARK  120  A    between atoms: _298  and  _299
REMARK  121  A    between atoms: _298  and  _301
REMARK  122  A    between atoms: _301  and  _302
REMARK  123  A    between atoms: _307  and  _309
REMARK  124  A    between atoms: _309  and  _310
REMARK  125  A    between atoms: _309  and  _312
REMARK  126  A    between atoms: _312  and  _313
REMARK  127  A    between atoms: _313  and  _314
REMARK  128  A    between atoms: _314  and  _315
REMARK  129  A    between atoms: _324  and  _326
REMARK  130  A    between atoms: _326  and  _327
REMARK  131  A    between atoms: _326  and  _329
REMARK  132  A    between atoms: _329  and  _330
REMARK  133  A    between atoms: _333  and  _335
REMARK  134  A    between atoms: _335  and  _336
REMARK  135  A    between atoms: _335  and  _338
REMARK  136  A    between atoms: _338  and  _339
REMARK  137  A    between atoms: _342  and  _344
REMARK  138  A    between atoms: _344  and  _345
REMARK  139  A    between atoms: _344  and  _347
REMARK  140  A    between atoms: _347  and  _348
REMARK  141  A    between atoms: _351  and  _353
REMARK  142  A    between atoms: _353  and  _354
REMARK  143  A    between atoms: _353  and  _356
REMARK  144  A    between atoms: _356  and  _357
REMARK  145  A    between atoms: _360  and  _362
REMARK  146  A    between atoms: _362  and  _363
REMARK  147  A    between atoms: _365  and  _367
REMARK  148  A    between atoms: _367  and  _368
REMARK  149  A    between atoms: _371  and  _373
REMARK  150  A    between atoms: _373  and  _374
REMARK  151  A    between atoms: _373  and  _376
REMARK  152  A    between atoms: _376  and  _377
REMARK  153  A    between atoms: _380  and  _382
REMARK  154  A    between atoms: _382  and  _383
REMARK  155  A    between atoms: _382  and  _385
REMARK  156  A    between atoms: _385  and  _386
REMARK  157  A    between atoms: _389  and  _391
REMARK  158  A    between atoms: _391  and  _392
REMARK  159  A    between atoms: _391  and  _394
REMARK  160  A    between atoms: _394  and  _395
REMARK  161  A    between atoms: _398  and  _400
REMARK  162  A    between atoms: _400  and  _401
REMARK  163  A    between atoms: _400  and  _403
REMARK  164  A    between atoms: _406  and  _408
REMARK  165  A    between atoms: _408  and  _409
REMARK  166  A    between atoms: _408  and  _411
REMARK  167  A    between atoms: _411  and  _412
REMARK  168  A    between atoms: _415  and  _417
REMARK  169  A    between atoms: _417  and  _418
REMARK  170  A    between atoms: _417  and  _420
REMARK  171  A    between atoms: _420  and  _421
REMARK  172  A    between atoms: _421  and  _422
REMARK  173  A    between atoms: _422  and  _423
REMARK  174  A    between atoms: _423  and  _424
REMARK  175  A    between atoms: _428  and  _430
REMARK  176  A    between atoms: _430  and  _431
REMARK  177  A    between atoms: _430  and  _433
REMARK  178  A    between atoms: _433  and  _434
REMARK  179  A    between atoms: _434  and  _435
REMARK  180  A    between atoms: _437  and  _439
REMARK  181  A    between atoms: _439  and  _440
REMARK  182  A    between atoms: _439  and  _442
REMARK  183  A    between atoms: _442  and  _443
REMARK  184  A    between atoms: _446  and  _448
REMARK  185  A    between atoms: _448  and  _449
REMARK  186  A    between atoms: _451  and  _453
REMARK  187  A    between atoms: _453  and  _454
REMARK  188  A    between atoms: _456  and  _458
REMARK  189  A    between atoms: _458  and  _459
REMARK  190  A    between atoms: _458  and  _461
REMARK  191  A    between atoms: _461  and  _462
REMARK  192  A    between atoms: _465  and  _467
REMARK  193  A    between atoms: _467  and  _468
REMARK  194  A    between atoms: _470  and  _472
REMARK  195  A    between atoms: _472  and  _473
REMARK  196  A    between atoms: _475  and  _477
REMARK  197  A    between atoms: _477  and  _478
REMARK  198  A    between atoms: _477  and  _480
REMARK  199  A    between atoms: _480  and  _481
REMARK  200  A    between atoms: _487  and  _489
REMARK  201  A    between atoms: _489  and  _490
REMARK  202  A    between atoms: _489  and  _492
REMARK  203  A    between atoms: _492  and  _493
REMARK  204  A    between atoms: _496  and  _498
REMARK  205  A    between atoms: _498  and  _499
REMARK  206  A    between atoms: _498  and  _501
REMARK  207  A    between atoms: _504  and  _506
REMARK  208  A    between atoms: _506  and  _507
REMARK  209  A    between atoms: _506  and  _509
REMARK  210  A    between atoms: _509  and  _510
REMARK  211  A    between atoms: _513  and  _515
REMARK  212  A    between atoms: _515  and  _516
REMARK  213  A    between atoms: _515  and  _518
REMARK  214  A    between atoms: _518  and  _519
REMARK  215  A    between atoms: _523  and  _524
REMARK  216  A    between atoms: _529  and  _531
REMARK  217  A    between atoms: _531  and  _532
REMARK  218  A    between atoms: _531  and  _534
REMARK  219  A    between atoms: _537  and  _539
REMARK  220  A    between atoms: _539  and  _540
REMARK  221  A    between atoms: _539  and  _542
REMARK  222  A    between atoms: _542  and  _543
REMARK  223  A    between atoms: _548  and  _550
REMARK  224  A    between atoms: _550  and  _551
REMARK  225  A    between atoms: _550  and  _553
REMARK  226  A    between atoms: _553  and  _554
REMARK  227  A    between atoms: _557  and  _559
REMARK  228  A    between atoms: _559  and  _560
REMARK  229  A    between atoms: _559  and  _562
REMARK  230  A    between atoms: _562  and  _563
REMARK  231  A    between atoms: _566  and  _568
REMARK  232  A    between atoms: _568  and  _569
REMARK  233  A    between atoms: _571  and  _573
REMARK  234  A    between atoms: _573  and  _574
REMARK  235  A    between atoms: _573  and  _576
REMARK  236  A    between atoms: _576  and  _577
REMARK  237  A    between atoms: _577  and  _578
REMARK  238  A    between atoms: _578  and  _579
REMARK  239  A    between atoms: _588  and  _590
REMARK  240  A    between atoms: _590  and  _591
REMARK  241  A    between atoms: _590  and  _593
REMARK  242  A    between atoms: _593  and  _594
REMARK                            x       y       z     vdW  Elec       q    Type
REMARK                         _______ _______ _______ _____ _____    ______ ____
ROOT
ATOM      1  O   HOH     1       7.219  23.724  18.324  0.00  0.00    +0.000 OA
ENDROOT
TORSDOF 0
REMARK  Name = ../refined-set-2016/4zip/4zip_pocket.pdb
REMARK  242 active torsions:
REMARK  status: ('A' for Active; 'I' for Inactive)
REMARK    1  A    between atoms: _1  and  _3
REMARK    2  A    between atoms: _3  and  _4
REMARK    3  A    between atoms: _3  and  _6
REMARK    4  A    between atoms: _6  and  _7
REMARK    5  A    between atoms: _7  and  _8
REMARK    6  A    between atoms: _8  and  _9
REMARK    7  A    between atoms: _19  and  _20
REMARK    8  A    between atoms: _25  and  _27
REMARK    9  A    between atoms: _27  and  _28
REMARK   10  A    between atoms: _27  and  _30
REMARK   11  A    between atoms: _30  and  _31
REMARK   12  A    between atoms: _34  and  _36
REMARK   13  A    between atoms: _36  and  _37
REMARK   14  A    between atoms: _36  and  _39
REMARK   15  A    between atoms: _39  and  _40
REMARK   16  A    between atoms: _43  and  _45
REMARK   17  A    between atoms: _45  and  _46
REMARK   18  A    between atoms: _45  and  _48
REMARK   19  A    between atoms: _48  and  _49
REMARK   20  A    between atoms: _52  and  _54
REMARK   21  A    between atoms: _54  and  _55
REMARK   22  A    between atoms: _54  and  _57
REMARK   23  A    between atoms: _57  and  _58
REMARK   24  A    between atoms: _61  and  _63
REMARK   25  A    between atoms: _63  and  _64
REMARK   26  A    between atoms: _63  and  _66
REMARK   27  A    between atoms: _66  and  _67
REMARK   28  A    between atoms: _70  and  _72
REMARK   29  A    between atoms: _72  and  _73
REMARK   30  A    between atoms: _75  and  _77
REMARK   31  A    between atoms: _77  and  _78
REMARK   32  A    between atoms: _81  and  _83
REMARK   33  A    between atoms: _83  and  _84
REMARK   34  A    between atoms: _83  and  _86
REMARK   35  A    between atoms: _86  and  _87
REMARK   36  A    between atoms: _90  and  _92
REMARK   37  A    between atoms: _92  and  _93
REMARK   38  A    between atoms: _92  and  _95
REMARK   39  A    between atoms: _95  and  _96
REMARK   40  A    between atoms: _99  and  _101
REMARK   41  A    between atoms: _101  and  _102
REMARK   42  A    between atoms: _101  and  _104
REMARK   43  A    between atoms: _104  and  _105
REMARK   44  A    between atoms: _108  and  _110
REMARK   45  A    between atoms: _110  and  _111
REMARK   46  A    between atoms: _110  and  _113
REMARK   47  A    between atoms: _116  and  _118
REMARK   48  A    between atoms: _118  and  _119
REMARK   49  A    between atoms: _118  and  _121
REMARK   50  A    between atoms: _121  and  _122
REMARK   51  A    between atoms: _122  and  _123
REMARK   52  A    between atoms: _123  and  _124
REMARK   53  A    between atoms: _124  and  _125
REMARK   54  A    between atoms: _129  and  _131
REMARK   55  A    between atoms: _131  and  _132
REMARK   56  A    between atoms: _131  and  _134
REMARK   57  A    between atoms: _134  and  _135
REMARK   58  A    between atoms: _135  and  _136
REMARK   59  A    between atoms: _138  and  _140
REMARK   60  A    between atoms: _140  and  _141
REMARK   61  A    between atoms: _140  and  _143
REMARK   62  A    between atoms: _143  and  _144
REMARK   63  A    between atoms: _147  and  _149
REMARK   64  A    between atoms: _149  and  _150
REMARK   65  A    between atoms: _152  and  _154
REMARK   66  A    between atoms: _154  and  _155
REMARK   67  A    between atoms: _157  and  _159
REMARK   68  A    between atoms: _159  and  _160
REMARK   69  A    between atoms: _159  and  _162
REMARK   70  A    between atoms: _162  and  _163
REMARK   71  A    between atoms: _166  and  _168
REMARK   72  A    between atoms: _168  and  _169
REMARK   73  A    between atoms: _171  and  _173
REMARK   74  A    between atoms: _173  and  _174
REMARK   75  A    between atoms: _176  and  _178
REMARK   76  A    between atoms: _178  and  _179
REMARK   77  A    between atoms: _178  and  _181
REMARK   78  A    between atoms: _181  and  _182
REMARK   79  A    between atoms: _188  and  _190
REMARK   80  A    between atoms: _190  and  _191
REMARK   81  A    between atoms: _190  and  _193
REMARK   82  A    between atoms: _193  and  _194
REMARK   83  A    between atoms: _197  and  _199
REMARK   84  A    between atoms: _199  and  _200
REMARK   85  A    between atoms: _199  and  _202
REMARK   86  A    between atoms: _205  and  _207
REMARK   87  A    between atoms: _207  and  _208
REMARK   88  A    between atoms: _207  and  _210
REMARK   89  A    between atoms: _210  and  _211
REMARK   90  A    between atoms: _215  and  _216
REMARK   91  A    between atoms: _221  and  _223
REMARK   92  A    between atoms: _223  and  _224
REMARK   93  A    between atoms: _223  and  _226
REMARK   94  A    between atoms: _226  and  _227
REMARK   95  A    between atoms: _231  and  _232
REMARK   96  A    between atoms: _237  and  _239
REMARK   97  A    between atoms: _239  and  _240
REMARK   98  A    between atoms: _239  and  _242
REMARK   99  A    between atoms: _245  and  _247
REMARK  100  A    between atoms: _247  and  _248
REMARK  101  A    between atoms: _247  and  _250
REMARK  102  A    between atoms: _250  and  _251
REMARK  103  A    between atoms: _256  and  _258
REMARK  104  A    between atoms: _258  and  _259
REMARK  105  A    between atoms: _258  and  _261
REMARK  106  A    between atoms: _261  and  _262
REMARK  107  A    between atoms: _265  and  _267
REMARK  108  A    between atoms: _267  and  _268
REMARK  109  A    between atoms: _267  and  _270
REMARK  110  A    between atoms: _270  and  _271
REMARK  111  A    between atoms: _274  and  _276
REMARK  112  A    between atoms: _276  and  _277
REMARK  113  A    between atoms: _279  and  _281
REMARK  114  A    between atoms: _281  and  _282
REMARK  115  A    between atoms: _281  and  _284
REMARK  116  A    between atoms: _284  and  _285
REMARK  117  A    between atoms: _285  and  _286
REMARK  118  A    between atoms: _286  and  _287
REMARK  119  A    between atoms: _296  and  _298
REMARK  120  A    between atoms: _298  and  _299
REMARK  121  A    between atoms: _298  and  _301
REMARK  122  A    between atoms: _301  and  _302
REMARK  123  A    between atoms: _307  and  _309
REMARK  124  A    between atoms: _309  and  _310
REMARK  125  A    between atoms: _309  and  _312
REMARK  126  A    between atoms: _312  and  _313
REMARK  127  A    between atoms: _313  and  _314
REMARK  128  A    between atoms: _314  and  _315
REMARK  129  A    between atoms: _324  and  _326
REMARK  130  A    between atoms: _326  and  _327
REMARK  131  A    between atoms: _326  and  _329
REMARK  132  A    between atoms: _329  and  _330
REMARK  133  A    between atoms: _333  and  _335
REMARK  134  A    between atoms: _335  and  _336
REMARK  135  A    between atoms: _335  and  _338
REMARK  136  A    between atoms: _338  and  _339
REMARK  137  A    between atoms: _342  and  _344
REMARK  138  A    between atoms: _344  and  _345
REMARK  139  A    between atoms: _344  and  _347
REMARK  140  A    between atoms: _347  and  _348
REMARK  141  A    between atoms: _351  and  _353
REMARK  142  A    between atoms: _353  and  _354
REMARK  143  A    between atoms: _353  and  _356
REMARK  144  A    between atoms: _356  and  _357
REMARK  145  A    between atoms: _360  and  _362
REMARK  146  A    between atoms: _362  and  _363
REMARK  147  A    between atoms: _365  and  _367
REMARK  148  A    between atoms: _367  and  _368
REMARK  149  A    between atoms: _371  and  _373
REMARK  150  A    between atoms: _373  and  _374
REMARK  151  A    between atoms: _373  and  _376
REMARK  152  A    between atoms: _376  and  _377
REMARK  153  A    between atoms: _380  and  _382
REMARK  154  A    between atoms: _382  and  _383
REMARK  155  A    between atoms: _382  and  _385
REMARK  156  A    between atoms: _385  and  _386
REMARK  157  A    between atoms: _389  and  _391
REMARK  158  A    between atoms: _391  and  _392
REMARK  159  A    between atoms: _391  and  _394
REMARK  160  A    between atoms: _394  and  _395
REMARK  161  A    between atoms: _398  and  _400
REMARK  162  A    between atoms: _400  and  _401
REMARK  163  A    between atoms: _400  and  _403
REMARK  164  A    between atoms: _406  and  _408
REMARK  165  A    between atoms: _408  and  _409
REMARK  166  A    between atoms: _408  and  _411
REMARK  167  A    between atoms: _411  and  _412
REMARK  168  A    between atoms: _415  and  _417
REMARK  169  A    between atoms: _417  and  _418
REMARK  170  A    between atoms: _417  and  _420
REMARK  171  A    between atoms: _420  and  _421
REMARK  172  A    between atoms: _421  and  _422
REMARK  173  A    between atoms: _422  and  _423
REMARK  174  A    between atoms: _423  and  _424
REMARK  175  A    between atoms: _428  and  _430
REMARK  176  A    between atoms: _430  and  _431
REMARK  177  A    between atoms: _430  and  _433
REMARK  178  A    between atoms: _433  and  _434
REMARK  179  A    between atoms: _434  and  _435
REMARK  180  A    between atoms: _437  and  _439
REMARK  181  A    between atoms: _439  and  _440
REMARK  182  A    between atoms: _439  and  _442
REMARK  183  A    between atoms: _442  and  _443
REMARK  184  A    between atoms: _446  and  _448
REMARK  185  A    between atoms: _448  and  _449
REMARK  186  A    between atoms: _451  and  _453
REMARK  187  A    between atoms: _453  and  _454
REMARK  188  A    between atoms: _456  and  _458
REMARK  189  A    between atoms: _458  and  _459
REMARK  190  A    between atoms: _458  and  _461
REMARK  191  A    between atoms: _461  and  _462
REMARK  192  A    between atoms: _465  and  _467
REMARK  193  A    between atoms: _467  and  _468
REMARK  194  A    between atoms: _470  and  _472
REMARK  195  A    between atoms: _472  and  _473
REMARK  196  A    between atoms: _475  and  _477
REMARK  197  A    between atoms: _477  and  _478
REMARK  198  A    between atoms: _477  and  _480
REMARK  199  A    between atoms: _480  and  _481
REMARK  200  A    between atoms: _487  and  _489
REMARK  201  A    between atoms: _489  and  _490
REMARK  202  A    between atoms: _489  and  _492
REMARK  203  A    between atoms: _492  and  _493
REMARK  204  A    between atoms: _496  and  _498
REMARK  205  A    between atoms: _498  and  _499
REMARK  206  A    between atoms: _498  and  _501
REMARK  207  A    between atoms: _504  and  _506
REMARK  208  A    between atoms: _506  and  _507
REMARK  209  A    between atoms: _506  and  _509
REMARK  210  A    between atoms: _509  and  _510
REMARK  211  A    between atoms: _513  and  _515
REMARK  212  A    between atoms: _515  and  _516
REMARK  213  A    between atoms: _515  and  _518
REMARK  214  A    between atoms: _518  and  _519
REMARK  215  A    between atoms: _523  and  _524
REMARK  216  A    between atoms: _529  and  _531
REMARK  217  A    between atoms: _531  and  _532
REMARK  218  A    between atoms: _531  and  _534
REMARK  219  A    between atoms: _537  and  _539
REMARK  220  A    between atoms: _539  and  _540
REMARK  221  A    between atoms: _539  and  _542
REMARK  222  A    between atoms: _542  and  _543
REMARK  223  A    between atoms: _548  and  _550
REMARK  224  A    between atoms: _550  and  _551
REMARK  225  A    between atoms: _550  and  _553
REMARK  226  A    between atoms: _553  and  _554
REMARK  227  A    between atoms: _557  and  _559
REMARK  228  A    between atoms: _559  and  _560
REMARK  229  A    between atoms: _559  and  _562
REMARK  230  A    between atoms: _562  and  _563
REMARK  231  A    between atoms: _566  and  _568
REMARK  232  A    between atoms: _568  and  _569
REMARK  233  A    between atoms: _571  and  _573
REMARK  234  A    between atoms: _573  and  _574
REMARK  235  A    between atoms: _573  and  _576
REMARK  236  A    between atoms: _576  and  _577
REMARK  237  A    between atoms: _577  and  _578
REMARK  238  A    between atoms: _578  and  _579
REMARK  239  A    between atoms: _588  and  _590
REMARK  240  A    between atoms: _590  and  _591
REMARK  241  A    between atoms: _590  and  _593
REMARK  242  A    between atoms: _593  and  _594
REMARK                            x       y       z     vdW  Elec       q    Type
REMARK                         _______ _______ _______ _____ _____    ______ ____
ROOT
ATOM      1  O   HOH     1       9.306  16.032  26.783  0.00  0.00    +0.000 OA
ENDROOT
TORSDOF 0
REMARK  Name = ../refined-set-2016/4zip/4zip_pocket.pdb
REMARK  242 active torsions:
REMARK  status: ('A' for Active; 'I' for Inactive)
REMARK    1  A    between atoms: _1  and  _3
REMARK    2  A    between atoms: _3  and  _4
REMARK    3  A    between atoms: _3  and  _6
REMARK    4  A    between atoms: _6  and  _7
REMARK    5  A    between atoms: _7  and  _8
REMARK    6  A    between atoms: _8  and  _9
REMARK    7  A    between atoms: _19  and  _20
REMARK    8  A    between atoms: _25  and  _27
REMARK    9  A    between atoms: _27  and  _28
REMARK   10  A    between atoms: _27  and  _30
REMARK   11  A    between atoms: _30  and  _31
REMARK   12  A    between atoms: _34  and  _36
REMARK   13  A    between atoms: _36  and  _37
REMARK   14  A    between atoms: _36  and  _39
REMARK   15  A    between atoms: _39  and  _40
REMARK   16  A    between atoms: _43  and  _45
REMARK   17  A    between atoms: _45  and  _46
REMARK   18  A    between atoms: _45  and  _48
REMARK   19  A    between atoms: _48  and  _49
REMARK   20  A    between atoms: _52  and  _54
REMARK   21  A    between atoms: _54  and  _55
REMARK   22  A    between atoms: _54  and  _57
REMARK   23  A    between atoms: _57  and  _58
REMARK   24  A    between atoms: _61  and  _63
REMARK   25  A    between atoms: _63  and  _64
REMARK   26  A    between atoms: _63  and  _66
REMARK   27  A    between atoms: _66  and  _67
REMARK   28  A    between atoms: _70  and  _72
REMARK   29  A    between atoms: _72  and  _73
REMARK   30  A    between atoms: _75  and  _77
REMARK   31  A    between atoms: _77  and  _78
REMARK   32  A    between atoms: _81  and  _83
REMARK   33  A    between atoms: _83  and  _84
REMARK   34  A    between atoms: _83  and  _86
REMARK   35  A    between atoms: _86  and  _87
REMARK   36  A    between atoms: _90  and  _92
REMARK   37  A    between atoms: _92  and  _93
REMARK   38  A    between atoms: _92  and  _95
REMARK   39  A    between atoms: _95  and  _96
REMARK   40  A    between atoms: _99  and  _101
REMARK   41  A    between atoms: _101  and  _102
REMARK   42  A    between atoms: _101  and  _104
REMARK   43  A    between atoms: _104  and  _105
REMARK   44  A    between atoms: _108  and  _110
REMARK   45  A    between atoms: _110  and  _111
REMARK   46  A    between atoms: _110  and  _113
REMARK   47  A    between atoms: _116  and  _118
REMARK   48  A    between atoms: _118  and  _119
REMARK   49  A    between atoms: _118  and  _121
REMARK   50  A    between atoms: _121  and  _122
REMARK   51  A    between atoms: _122  and  _123
REMARK   52  A    between atoms: _123  and  _124
REMARK   53  A    between atoms: _124  and  _125
REMARK   54  A    between atoms: _129  and  _131
REMARK   55  A    between atoms: _131  and  _132
REMARK   56  A    between atoms: _131  and  _134
REMARK   57  A    between atoms: _134  and  _135
REMARK   58  A    between atoms: _135  and  _136
REMARK   59  A    between atoms: _138  and  _140
REMARK   60  A    between atoms: _140  and  _141
REMARK   61  A    between atoms: _140  and  _143
REMARK   62  A    between atoms: _143  and  _144
REMARK   63  A    between atoms: _147  and  _149
REMARK   64  A    between atoms: _149  and  _150
REMARK   65  A    between atoms: _152  and  _154
REMARK   66  A    between atoms: _154  and  _155
REMARK   67  A    between atoms: _157  and  _159
REMARK   68  A    between atoms: _159  and  _160
REMARK   69  A    between atoms: _159  and  _162
REMARK   70  A    between atoms: _162  and  _163
REMARK   71  A    between atoms: _166  and  _168
REMARK   72  A    between atoms: _168  and  _169
REMARK   73  A    between atoms: _171  and  _173
REMARK   74  A    between atoms: _173  and  _174
REMARK   75  A    between atoms: _176  and  _178
REMARK   76  A    between atoms: _178  and  _179
REMARK   77  A    between atoms: _178  and  _181
REMARK   78  A    between atoms: _181  and  _182
REMARK   79  A    between atoms: _188  and  _190
REMARK   80  A    between atoms: _190  and  _191
REMARK   81  A    between atoms: _190  and  _193
REMARK   82  A    between atoms: _193  and  _194
REMARK   83  A    between atoms: _197  and  _199
REMARK   84  A    between atoms: _199  and  _200
REMARK   85  A    between atoms: _199  and  _202
REMARK   86  A    between atoms: _205  and  _207
REMARK   87  A    between atoms: _207  and  _208
REMARK   88  A    between atoms: _207  and  _210
REMARK   89  A    between atoms: _210  and  _211
REMARK   90  A    between atoms: _215  and  _216
REMARK   91  A    between atoms: _221  and  _223
REMARK   92  A    between atoms: _223  and  _224
REMARK   93  A    between atoms: _223  and  _226
REMARK   94  A    between atoms: _226  and  _227
REMARK   95  A    between atoms: _231  and  _232
REMARK   96  A    between atoms: _237  and  _239
REMARK   97  A    between atoms: _239  and  _240
REMARK   98  A    between atoms: _239  and  _242
REMARK   99  A    between atoms: _245  and  _247
REMARK  100  A    between atoms: _247  and  _248
REMARK  101  A    between atoms: _247  and  _250
REMARK  102  A    between atoms: _250  and  _251
REMARK  103  A    between atoms: _256  and  _258
REMARK  104  A    between atoms: _258  and  _259
REMARK  105  A    between atoms: _258  and  _261
REMARK  106  A    between atoms: _261  and  _262
REMARK  107  A    between atoms: _265  and  _267
REMARK  108  A    between atoms: _267  and  _268
REMARK  109  A    between atoms: _267  and  _270
REMARK  110  A    between atoms: _270  and  _271
REMARK  111  A    between atoms: _274  and  _276
REMARK  112  A    between atoms: _276  and  _277
REMARK  113  A    between atoms: _279  and  _281
REMARK  114  A    between atoms: _281  and  _282
REMARK  115  A    between atoms: _281  and  _284
REMARK  116  A    between atoms: _284  and  _285
REMARK  117  A    between atoms: _285  and  _286
REMARK  118  A    between atoms: _286  and  _287
REMARK  119  A    between atoms: _296  and  _298
REMARK  120  A    between atoms: _298  and  _299
REMARK  121  A    between atoms: _298  and  _301
REMARK  122  A    between atoms: _301  and  _302
REMARK  123  A    between atoms: _307  and  _309
REMARK  124  A    between atoms: _309  and  _310
REMARK  125  A    between atoms: _309  and  _312
REMARK  126  A    between atoms: _312  and  _313
REMARK  127  A    between atoms: _313  and  _314
REMARK  128  A    between atoms: _314  and  _315
REMARK  129  A    between atoms: _324  and  _326
REMARK  130  A    between atoms: _326  and  _327
REMARK  131  A    between atoms: _326  and  _329
REMARK  132  A    between atoms: _329  and  _330
REMARK  133  A    between atoms: _333  and  _335
REMARK  134  A    between atoms: _335  and  _336
REMARK  135  A    between atoms: _335  and  _338
REMARK  136  A    between atoms: _338  and  _339
REMARK  137  A    between atoms: _342  and  _344
REMARK  138  A    between atoms: _344  and  _345
REMARK  139  A    between atoms: _344  and  _347
REMARK  140  A    between atoms: _347  and  _348
REMARK  141  A    between atoms: _351  and  _353
REMARK  142  A    between atoms: _353  and  _354
REMARK  143  A    between atoms: _353  and  _356
REMARK  144  A    between atoms: _356  and  _357
REMARK  145  A    between atoms: _360  and  _362
REMARK  146  A    between atoms: _362  and  _363
REMARK  147  A    between atoms: _365  and  _367
REMARK  148  A    between atoms: _367  and  _368
REMARK  149  A    between atoms: _371  and  _373
REMARK  150  A    between atoms: _373  and  _374
REMARK  151  A    between atoms: _373  and  _376
REMARK  152  A    between atoms: _376  and  _377
REMARK  153  A    between atoms: _380  and  _382
REMARK  154  A    between atoms: _382  and  _383
REMARK  155  A    between atoms: _382  and  _385
REMARK  156  A    between atoms: _385  and  _386
REMARK  157  A    between atoms: _389  and  _391
REMARK  158  A    between atoms: _391  and  _392
REMARK  159  A    between atoms: _391  and  _394
REMARK  160  A    between atoms: _394  and  _395
REMARK  161  A    between atoms: _398  and  _400
REMARK  162  A    between atoms: _400  and  _401
REMARK  163  A    between atoms: _400  and  _403
REMARK  164  A    between atoms: _406  and  _408
REMARK  165  A    between atoms: _408  and  _409
REMARK  166  A    between atoms: _408  and  _411
REMARK  167  A    between atoms: _411  and  _412
REMARK  168  A    between atoms: _415  and  _417
REMARK  169  A    between atoms: _417  and  _418
REMARK  170  A    between atoms: _417  and  _420
REMARK  171  A    between atoms: _420  and  _421
REMARK  172  A    between atoms: _421  and  _422
REMARK  173  A    between atoms: _422  and  _423
REMARK  174  A    between atoms: _423  and  _424
REMARK  175  A    between atoms: _428  and  _430
REMARK  176  A    between atoms: _430  and  _431
REMARK  177  A    between atoms: _430  and  _433
REMARK  178  A    between atoms: _433  and  _434
REMARK  179  A    between atoms: _434  and  _435
REMARK  180  A    between atoms: _437  and  _439
REMARK  181  A    between atoms: _439  and  _440
REMARK  182  A    between atoms: _439  and  _442
REMARK  183  A    between atoms: _442  and  _443
REMARK  184  A    between atoms: _446  and  _448
REMARK  185  A    between atoms: _448  and  _449
REMARK  186  A    between atoms: _451  and  _453
REMARK  187  A    between atoms: _453  and  _454
REMARK  188  A    between atoms: _456  and  _458
REMARK  189  A    between atoms: _458  and  _459
REMARK  190  A    between atoms: _458  and  _461
REMARK  191  A    between atoms: _461  and  _462
REMARK  192  A    between atoms: _465  and  _467
REMARK  193  A    between atoms: _467  and  _468
REMARK  194  A    between atoms: _470  and  _472
REMARK  195  A    between atoms: _472  and  _473
REMARK  196  A    between atoms: _475  and  _477
REMARK  197  A    between atoms: _477  and  _478
REMARK  198  A    between atoms: _477  and  _480
REMARK  199  A    between atoms: _480  and  _481
REMARK  200  A    between atoms: _487  and  _489
REMARK  201  A    between atoms: _489  and  _490
REMARK  202  A    between atoms: _489  and  _492
REMARK  203  A    between atoms: _492  and  _493
REMARK  204  A    between atoms: _496  and  _498
REMARK  205  A    between atoms: _498  and  _499
REMARK  206  A    between atoms: _498  and  _501
REMARK  207  A    between atoms: _504  and  _506
REMARK  208  A    between atoms: _506  and  _507
REMARK  209  A    between atoms: _506  and  _509
REMARK  210  A    between atoms: _509  and  _510
REMARK  211  A    between atoms: _513  and  _515
REMARK  212  A    between atoms: _515  and  _516
REMARK  213  A    between atoms: _515  and  _518
REMARK  214  A    between atoms: _518  and  _519
REMARK  215  A    between atoms: _523  and  _524
REMARK  216  A    between atoms: _529  and  _531
REMARK  217  A    between atoms: _531  and  _532
REMARK  218  A    between atoms: _531  and  _534
REMARK  219  A    between atoms: _537  and  _539
REMARK  220  A    between atoms: _539  and  _540
REMARK  221  A    between atoms: _539  and  _542
REMARK  222  A    between atoms: _542  and  _543
REMARK  223  A    between atoms: _548  and  _550
REMARK  224  A    between atoms: _550  and  _551
REMARK  225  A    between atoms: _550  and  _553
REMARK  226  A    between atoms: _553  and  _554
REMARK  227  A    between atoms: _557  and  _559
REMARK  228  A    between atoms: _559  and  _560
REMARK  229  A    between atoms: _559  and  _562
REMARK  230  A    between atoms: _562  and  _563
REMARK  231  A    between atoms: _566  and  _568
REMARK  232  A    between atoms: _568  and  _569
REMARK  233  A    between atoms: _571  and  _573
REMARK  234  A    between atoms: _573  and  _574
REMARK  235  A    between atoms: _573  and  _576
REMARK  236  A    between atoms: _576  and  _577
REMARK  237  A    between atoms: _577  and  _578
REMARK  238  A    between atoms: _578  and  _579
REMARK  239  A    between atoms: _588  and  _590
REMARK  240  A    between atoms: _590  and  _591
REMARK  241  A    between atoms: _590  and  _593
REMARK  242  A    between atoms: _593  and  _594
REMARK                            x       y       z     vdW  Elec       q    Type
REMARK                         _______ _______ _______ _____ _____    ______ ____
ROOT
ATOM      1  O   HOH     1       3.282  17.811  17.891  0.00  0.00    +0.000 OA
ENDROOT
TORSDOF 0
REMARK  Name = ../refined-set-2016/4zip/4zip_pocket.pdb
REMARK  242 active torsions:
REMARK  status: ('A' for Active; 'I' for Inactive)
REMARK    1  A    between atoms: _1  and  _3
REMARK    2  A    between atoms: _3  and  _4
REMARK    3  A    between atoms: _3  and  _6
REMARK    4  A    between atoms: _6  and  _7
REMARK    5  A    between atoms: _7  and  _8
REMARK    6  A    between atoms: _8  and  _9
REMARK    7  A    between atoms: _19  and  _20
REMARK    8  A    between atoms: _25  and  _27
REMARK    9  A    between atoms: _27  and  _28
REMARK   10  A    between atoms: _27  and  _30
REMARK   11  A    between atoms: _30  and  _31
REMARK   12  A    between atoms: _34  and  _36
REMARK   13  A    between atoms: _36  and  _37
REMARK   14  A    between atoms: _36  and  _39
REMARK   15  A    between atoms: _39  and  _40
REMARK   16  A    between atoms: _43  and  _45
REMARK   17  A    between atoms: _45  and  _46
REMARK   18  A    between atoms: _45  and  _48
REMARK   19  A    between atoms: _48  and  _49
REMARK   20  A    between atoms: _52  and  _54
REMARK   21  A    between atoms: _54  and  _55
REMARK   22  A    between atoms: _54  and  _57
REMARK   23  A    between atoms: _57  and  _58
REMARK   24  A    between atoms: _61  and  _63
REMARK   25  A    between atoms: _63  and  _64
REMARK   26  A    between atoms: _63  and  _66
REMARK   27  A    between atoms: _66  and  _67
REMARK   28  A    between atoms: _70  and  _72
REMARK   29  A    between atoms: _72  and  _73
REMARK   30  A    between atoms: _75  and  _77
REMARK   31  A    between atoms: _77  and  _78
REMARK   32  A    between atoms: _81  and  _83
REMARK   33  A    between atoms: _83  and  _84
REMARK   34  A    between atoms: _83  and  _86
REMARK   35  A    between atoms: _86  and  _87
REMARK   36  A    between atoms: _90  and  _92
REMARK   37  A    between atoms: _92  and  _93
REMARK   38  A    between atoms: _92  and  _95
REMARK   39  A    between atoms: _95  and  _96
REMARK   40  A    between atoms: _99  and  _101
REMARK   41  A    between atoms: _101  and  _102
REMARK   42  A    between atoms: _101  and  _104
REMARK   43  A    between atoms: _104  and  _105
REMARK   44  A    between atoms: _108  and  _110
REMARK   45  A    between atoms: _110  and  _111
REMARK   46  A    between atoms: _110  and  _113
REMARK   47  A    between atoms: _116  and  _118
REMARK   48  A    between atoms: _118  and  _119
REMARK   49  A    between atoms: _118  and  _121
REMARK   50  A    between atoms: _121  and  _122
REMARK   51  A    between atoms: _122  and  _123
REMARK   52  A    between atoms: _123  and  _124
REMARK   53  A    between atoms: _124  and  _125
REMARK   54  A    between atoms: _129  and  _131
REMARK   55  A    between atoms: _131  and  _132
REMARK   56  A    between atoms: _131  and  _134
REMARK   57  A    between atoms: _134  and  _135
REMARK   58  A    between atoms: _135  and  _136
REMARK   59  A    between atoms: _138  and  _140
REMARK   60  A    between atoms: _140  and  _141
REMARK   61  A    between atoms: _140  and  _143
REMARK   62  A    between atoms: _143  and  _144
REMARK   63  A    between atoms: _147  and  _149
REMARK   64  A    between atoms: _149  and  _150
REMARK   65  A    between atoms: _152  and  _154
REMARK   66  A    between atoms: _154  and  _155
REMARK   67  A    between atoms: _157  and  _159
REMARK   68  A    between atoms: _159  and  _160
REMARK   69  A    between atoms: _159  and  _162
REMARK   70  A    between atoms: _162  and  _163
REMARK   71  A    between atoms: _166  and  _168
REMARK   72  A    between atoms: _168  and  _169
REMARK   73  A    between atoms: _171  and  _173
REMARK   74  A    between atoms: _173  and  _174
REMARK   75  A    between atoms: _176  and  _178
REMARK   76  A    between atoms: _178  and  _179
REMARK   77  A    between atoms: _178  and  _181
REMARK   78  A    between atoms: _181  and  _182
REMARK   79  A    between atoms: _188  and  _190
REMARK   80  A    between atoms: _190  and  _191
REMARK   81  A    between atoms: _190  and  _193
REMARK   82  A    between atoms: _193  and  _194
REMARK   83  A    between atoms: _197  and  _199
REMARK   84  A    between atoms: _199  and  _200
REMARK   85  A    between atoms: _199  and  _202
REMARK   86  A    between atoms: _205  and  _207
REMARK   87  A    between atoms: _207  and  _208
REMARK   88  A    between atoms: _207  and  _210
REMARK   89  A    between atoms: _210  and  _211
REMARK   90  A    between atoms: _215  and  _216
REMARK   91  A    between atoms: _221  and  _223
REMARK   92  A    between atoms: _223  and  _224
REMARK   93  A    between atoms: _223  and  _226
REMARK   94  A    between atoms: _226  and  _227
REMARK   95  A    between atoms: _231  and  _232
REMARK   96  A    between atoms: _237  and  _239
REMARK   97  A    between atoms: _239  and  _240
REMARK   98  A    between atoms: _239  and  _242
REMARK   99  A    between atoms: _245  and  _247
REMARK  100  A    between atoms: _247  and  _248
REMARK  101  A    between atoms: _247  and  _250
REMARK  102  A    between atoms: _250  and  _251
REMARK  103  A    between atoms: _256  and  _258
REMARK  104  A    between atoms: _258  and  _259
REMARK  105  A    between atoms: _258  and  _261
REMARK  106  A    between atoms: _261  and  _262
REMARK  107  A    between atoms: _265  and  _267
REMARK  108  A    between atoms: _267  and  _268
REMARK  109  A    between atoms: _267  and  _270
REMARK  110  A    between atoms: _270  and  _271
REMARK  111  A    between atoms: _274  and  _276
REMARK  112  A    between atoms: _276  and  _277
REMARK  113  A    between atoms: _279  and  _281
REMARK  114  A    between atoms: _281  and  _282
REMARK  115  A    between atoms: _281  and  _284
REMARK  116  A    between atoms: _284  and  _285
REMARK  117  A    between atoms: _285  and  _286
REMARK  118  A    between atoms: _286  and  _287
REMARK  119  A    between atoms: _296  and  _298
REMARK  120  A    between atoms: _298  and  _299
REMARK  121  A    between atoms: _298  and  _301
REMARK  122  A    between atoms: _301  and  _302
REMARK  123  A    between atoms: _307  and  _309
REMARK  124  A    between atoms: _309  and  _310
REMARK  125  A    between atoms: _309  and  _312
REMARK  126  A    between atoms: _312  and  _313
REMARK  127  A    between atoms: _313  and  _314
REMARK  128  A    between atoms: _314  and  _315
REMARK  129  A    between atoms: _324  and  _326
REMARK  130  A    between atoms: _326  and  _327
REMARK  131  A    between atoms: _326  and  _329
REMARK  132  A    between atoms: _329  and  _330
REMARK  133  A    between atoms: _333  and  _335
REMARK  134  A    between atoms: _335  and  _336
REMARK  135  A    between atoms: _335  and  _338
REMARK  136  A    between atoms: _338  and  _339
REMARK  137  A    between atoms: _342  and  _344
REMARK  138  A    between atoms: _344  and  _345
REMARK  139  A    between atoms: _344  and  _347
REMARK  140  A    between atoms: _347  and  _348
REMARK  141  A    between atoms: _351  and  _353
REMARK  142  A    between atoms: _353  and  _354
REMARK  143  A    between atoms: _353  and  _356
REMARK  144  A    between atoms: _356  and  _357
REMARK  145  A    between atoms: _360  and  _362
REMARK  146  A    between atoms: _362  and  _363
REMARK  147  A    between atoms: _365  and  _367
REMARK  148  A    between atoms: _367  and  _368
REMARK  149  A    between atoms: _371  and  _373
REMARK  150  A    between atoms: _373  and  _374
REMARK  151  A    between atoms: _373  and  _376
REMARK  152  A    between atoms: _376  and  _377
REMARK  153  A    between atoms: _380  and  _382
REMARK  154  A    between atoms: _382  and  _383
REMARK  155  A    between atoms: _382  and  _385
REMARK  156  A    between atoms: _385  and  _386
REMARK  157  A    between atoms: _389  and  _391
REMARK  158  A    between atoms: _391  and  _392
REMARK  159  A    between atoms: _391  and  _394
REMARK  160  A    between atoms: _394  and  _395
REMARK  161  A    between atoms: _398  and  _400
REMARK  162  A    between atoms: _400  and  _401
REMARK  163  A    between atoms: _400  and  _403
REMARK  164  A    between atoms: _406  and  _408
REMARK  165  A    between atoms: _408  and  _409
REMARK  166  A    between atoms: _408  and  _411
REMARK  167  A    between atoms: _411  and  _412
REMARK  168  A    between atoms: _415  and  _417
REMARK  169  A    between atoms: _417  and  _418
REMARK  170  A    between atoms: _417  and  _420
REMARK  171  A    between atoms: _420  and  _421
REMARK  172  A    between atoms: _421  and  _422
REMARK  173  A    between atoms: _422  and  _423
REMARK  174  A    between atoms: _423  and  _424
REMARK  175  A    between atoms: _428  and  _430
REMARK  176  A    between atoms: _430  and  _431
REMARK  177  A    between atoms: _430  and  _433
REMARK  178  A    between atoms: _433  and  _434
REMARK  179  A    between atoms: _434  and  _435
REMARK  180  A    between atoms: _437  and  _439
REMARK  181  A    between atoms: _439  and  _440
REMARK  182  A    between atoms: _439  and  _442
REMARK  183  A    between atoms: _442  and  _443
REMARK  184  A    between atoms: _446  and  _448
REMARK  185  A    between atoms: _448  and  _449
REMARK  186  A    between atoms: _451  and  _453
REMARK  187  A    between atoms: _453  and  _454
REMARK  188  A    between atoms: _456  and  _458
REMARK  189  A    between atoms: _458  and  _459
REMARK  190  A    between atoms: _458  and  _461
REMARK  191  A    between atoms: _461  and  _462
REMARK  192  A    between atoms: _465  and  _467
REMARK  193  A    between atoms: _467  and  _468
REMARK  194  A    between atoms: _470  and  _472
REMARK  195  A    between atoms: _472  and  _473
REMARK  196  A    between atoms: _475  and  _477
REMARK  197  A    between atoms: _477  and  _478
REMARK  198  A    between atoms: _477  and  _480
REMARK  199  A    between atoms: _480  and  _481
REMARK  200  A    between atoms: _487  and  _489
REMARK  201  A    between atoms: _489  and  _490
REMARK  202  A    between atoms: _489  and  _492
REMARK  203  A    between atoms: _492  and  _493
REMARK  204  A    between atoms: _496  and  _498
REMARK  205  A    between atoms: _498  and  _499
REMARK  206  A    between atoms: _498  and  _501
REMARK  207  A    between atoms: _504  and  _506
REMARK  208  A    between atoms: _506  and  _507
REMARK  209  A    between atoms: _506  and  _509
REMARK  210  A    between atoms: _509  and  _510
REMARK  211  A    between atoms: _513  and  _515
REMARK  212  A    between atoms: _515  and  _516
REMARK  213  A    between atoms: _515  and  _518
REMARK  214  A    between atoms: _518  and  _519
REMARK  215  A    between atoms: _523  and  _524
REMARK  216  A    between atoms: _529  and  _531
REMARK  217  A    between atoms: _531  and  _532
REMARK  218  A    between atoms: _531  and  _534
REMARK  219  A    between atoms: _537  and  _539
REMARK  220  A    between atoms: _539  and  _540
REMARK  221  A    between atoms: _539  and  _542
REMARK  222  A    between atoms: _542  and  _543
REMARK  223  A    between atoms: _548  and  _550
REMARK  224  A    between atoms: _550  and  _551
REMARK  225  A    between atoms: _550  and  _553
REMARK  226  A    between atoms: _553  and  _554
REMARK  227  A    between atoms: _557  and  _559
REMARK  228  A    between atoms: _559  and  _560
REMARK  229  A    between atoms: _559  and  _562
REMARK  230  A    between atoms: _562  and  _563
REMARK  231  A    between atoms: _566  and  _568
REMARK  232  A    between atoms: _568  and  _569
REMARK  233  A    between atoms: _571  and  _573
REMARK  234  A    between atoms: _573  and  _574
REMARK  235  A    between atoms: _573  and  _576
REMARK  236  A    between atoms: _576  and  _577
REMARK  237  A    between atoms: _577  and  _578
REMARK  238  A    between atoms: _578  and  _579
REMARK  239  A    between atoms: _588  and  _590
REMARK  240  A    between atoms: _590  and  _591
REMARK  241  A    between atoms: _590  and  _593
REMARK  242  A    between atoms: _593  and  _594
REMARK                            x       y       z     vdW  Elec       q    Type
REMARK                         _______ _______ _______ _____ _____    ______ ____
ROOT
ATOM      1  O   HOH     1      13.004  16.248  11.962  0.00  0.00    +0.000 OA
ENDROOT
TORSDOF 0
REMARK  Name = ../refined-set-2016/4zip/4zip_pocket.pdb
REMARK  242 active torsions:
REMARK  status: ('A' for Active; 'I' for Inactive)
REMARK    1  A    between atoms: _1  and  _3
REMARK    2  A    between atoms: _3  and  _4
REMARK    3  A    between atoms: _3  and  _6
REMARK    4  A    between atoms: _6  and  _7
REMARK    5  A    between atoms: _7  and  _8
REMARK    6  A    between atoms: _8  and  _9
REMARK    7  A    between atoms: _19  and  _20
REMARK    8  A    between atoms: _25  and  _27
REMARK    9  A    between atoms: _27  and  _28
REMARK   10  A    between atoms: _27  and  _30
REMARK   11  A    between atoms: _30  and  _31
REMARK   12  A    between atoms: _34  and  _36
REMARK   13  A    between atoms: _36  and  _37
REMARK   14  A    between atoms: _36  and  _39
REMARK   15  A    between atoms: _39  and  _40
REMARK   16  A    between atoms: _43  and  _45
REMARK   17  A    between atoms: _45  and  _46
REMARK   18  A    between atoms: _45  and  _48
REMARK   19  A    between atoms: _48  and  _49
REMARK   20  A    between atoms: _52  and  _54
REMARK   21  A    between atoms: _54  and  _55
REMARK   22  A    between atoms: _54  and  _57
REMARK   23  A    between atoms: _57  and  _58
REMARK   24  A    between atoms: _61  and  _63
REMARK   25  A    between atoms: _63  and  _64
REMARK   26  A    between atoms: _63  and  _66
REMARK   27  A    between atoms: _66  and  _67
REMARK   28  A    between atoms: _70  and  _72
REMARK   29  A    between atoms: _72  and  _73
REMARK   30  A    between atoms: _75  and  _77
REMARK   31  A    between atoms: _77  and  _78
REMARK   32  A    between atoms: _81  and  _83
REMARK   33  A    between atoms: _83  and  _84
REMARK   34  A    between atoms: _83  and  _86
REMARK   35  A    between atoms: _86  and  _87
REMARK   36  A    between atoms: _90  and  _92
REMARK   37  A    between atoms: _92  and  _93
REMARK   38  A    between atoms: _92  and  _95
REMARK   39  A    between atoms: _95  and  _96
REMARK   40  A    between atoms: _99  and  _101
REMARK   41  A    between atoms: _101  and  _102
REMARK   42  A    between atoms: _101  and  _104
REMARK   43  A    between atoms: _104  and  _105
REMARK   44  A    between atoms: _108  and  _110
REMARK   45  A    between atoms: _110  and  _111
REMARK   46  A    between atoms: _110  and  _113
REMARK   47  A    between atoms: _116  and  _118
REMARK   48  A    between atoms: _118  and  _119
REMARK   49  A    between atoms: _118  and  _121
REMARK   50  A    between atoms: _121  and  _122
REMARK   51  A    between atoms: _122  and  _123
REMARK   52  A    between atoms: _123  and  _124
REMARK   53  A    between atoms: _124  and  _125
REMARK   54  A    between atoms: _129  and  _131
REMARK   55  A    between atoms: _131  and  _132
REMARK   56  A    between atoms: _131  and  _134
REMARK   57  A    between atoms: _134  and  _135
REMARK   58  A    between atoms: _135  and  _136
REMARK   59  A    between atoms: _138  and  _140
REMARK   60  A    between atoms: _140  and  _141
REMARK   61  A    between atoms: _140  and  _143
REMARK   62  A    between atoms: _143  and  _144
REMARK   63  A    between atoms: _147  and  _149
REMARK   64  A    between atoms: _149  and  _150
REMARK   65  A    between atoms: _152  and  _154
REMARK   66  A    between atoms: _154  and  _155
REMARK   67  A    between atoms: _157  and  _159
REMARK   68  A    between atoms: _159  and  _160
REMARK   69  A    between atoms: _159  and  _162
REMARK   70  A    between atoms: _162  and  _163
REMARK   71  A    between atoms: _166  and  _168
REMARK   72  A    between atoms: _168  and  _169
REMARK   73  A    between atoms: _171  and  _173
REMARK   74  A    between atoms: _173  and  _174
REMARK   75  A    between atoms: _176  and  _178
REMARK   76  A    between atoms: _178  and  _179
REMARK   77  A    between atoms: _178  and  _181
REMARK   78  A    between atoms: _181  and  _182
REMARK   79  A    between atoms: _188  and  _190
REMARK   80  A    between atoms: _190  and  _191
REMARK   81  A    between atoms: _190  and  _193
REMARK   82  A    between atoms: _193  and  _194
REMARK   83  A    between atoms: _197  and  _199
REMARK   84  A    between atoms: _199  and  _200
REMARK   85  A    between atoms: _199  and  _202
REMARK   86  A    between atoms: _205  and  _207
REMARK   87  A    between atoms: _207  and  _208
REMARK   88  A    between atoms: _207  and  _210
REMARK   89  A    between atoms: _210  and  _211
REMARK   90  A    between atoms: _215  and  _216
REMARK   91  A    between atoms: _221  and  _223
REMARK   92  A    between atoms: _223  and  _224
REMARK   93  A    between atoms: _223  and  _226
REMARK   94  A    between atoms: _226  and  _227
REMARK   95  A    between atoms: _231  and  _232
REMARK   96  A    between atoms: _237  and  _239
REMARK   97  A    between atoms: _239  and  _240
REMARK   98  A    between atoms: _239  and  _242
REMARK   99  A    between atoms: _245  and  _247
REMARK  100  A    between atoms: _247  and  _248
REMARK  101  A    between atoms: _247  and  _250
REMARK  102  A    between atoms: _250  and  _251
REMARK  103  A    between atoms: _256  and  _258
REMARK  104  A    between atoms: _258  and  _259
REMARK  105  A    between atoms: _258  and  _261
REMARK  106  A    between atoms: _261  and  _262
REMARK  107  A    between atoms: _265  and  _267
REMARK  108  A    between atoms: _267  and  _268
REMARK  109  A    between atoms: _267  and  _270
REMARK  110  A    between atoms: _270  and  _271
REMARK  111  A    between atoms: _274  and  _276
REMARK  112  A    between atoms: _276  and  _277
REMARK  113  A    between atoms: _279  and  _281
REMARK  114  A    between atoms: _281  and  _282
REMARK  115  A    between atoms: _281  and  _284
REMARK  116  A    between atoms: _284  and  _285
REMARK  117  A    between atoms: _285  and  _286
REMARK  118  A    between atoms: _286  and  _287
REMARK  119  A    between atoms: _296  and  _298
REMARK  120  A    between atoms: _298  and  _299
REMARK  121  A    between atoms: _298  and  _301
REMARK  122  A    between atoms: _301  and  _302
REMARK  123  A    between atoms: _307  and  _309
REMARK  124  A    between atoms: _309  and  _310
REMARK  125  A    between atoms: _309  and  _312
REMARK  126  A    between atoms: _312  and  _313
REMARK  127  A    between atoms: _313  and  _314
REMARK  128  A    between atoms: _314  and  _315
REMARK  129  A    between atoms: _324  and  _326
REMARK  130  A    between atoms: _326  and  _327
REMARK  131  A    between atoms: _326  and  _329
REMARK  132  A    between atoms: _329  and  _330
REMARK  133  A    between atoms: _333  and  _335
REMARK  134  A    between atoms: _335  and  _336
REMARK  135  A    between atoms: _335  and  _338
REMARK  136  A    between atoms: _338  and  _339
REMARK  137  A    between atoms: _342  and  _344
REMARK  138  A    between atoms: _344  and  _345
REMARK  139  A    between atoms: _344  and  _347
REMARK  140  A    between atoms: _347  and  _348
REMARK  141  A    between atoms: _351  and  _353
REMARK  142  A    between atoms: _353  and  _354
REMARK  143  A    between atoms: _353  and  _356
REMARK  144  A    between atoms: _356  and  _357
REMARK  145  A    between atoms: _360  and  _362
REMARK  146  A    between atoms: _362  and  _363
REMARK  147  A    between atoms: _365  and  _367
REMARK  148  A    between atoms: _367  and  _368
REMARK  149  A    between atoms: _371  and  _373
REMARK  150  A    between atoms: _373  and  _374
REMARK  151  A    between atoms: _373  and  _376
REMARK  152  A    between atoms: _376  and  _377
REMARK  153  A    between atoms: _380  and  _382
REMARK  154  A    between atoms: _382  and  _383
REMARK  155  A    between atoms: _382  and  _385
REMARK  156  A    between atoms: _385  and  _386
REMARK  157  A    between atoms: _389  and  _391
REMARK  158  A    between atoms: _391  and  _392
REMARK  159  A    between atoms: _391  and  _394
REMARK  160  A    between atoms: _394  and  _395
REMARK  161  A    between atoms: _398  and  _400
REMARK  162  A    between atoms: _400  and  _401
REMARK  163  A    between atoms: _400  and  _403
REMARK  164  A    between atoms: _406  and  _408
REMARK  165  A    between atoms: _408  and  _409
REMARK  166  A    between atoms: _408  and  _411
REMARK  167  A    between atoms: _411  and  _412
REMARK  168  A    between atoms: _415  and  _417
REMARK  169  A    between atoms: _417  and  _418
REMARK  170  A    between atoms: _417  and  _420
REMARK  171  A    between atoms: _420  and  _421
REMARK  172  A    between atoms: _421  and  _422
REMARK  173  A    between atoms: _422  and  _423
REMARK  174  A    between atoms: _423  and  _424
REMARK  175  A    between atoms: _428  and  _430
REMARK  176  A    between atoms: _430  and  _431
REMARK  177  A    between atoms: _430  and  _433
REMARK  178  A    between atoms: _433  and  _434
REMARK  179  A    between atoms: _434  and  _435
REMARK  180  A    between atoms: _437  and  _439
REMARK  181  A    between atoms: _439  and  _440
REMARK  182  A    between atoms: _439  and  _442
REMARK  183  A    between atoms: _442  and  _443
REMARK  184  A    between atoms: _446  and  _448
REMARK  185  A    between atoms: _448  and  _449
REMARK  186  A    between atoms: _451  and  _453
REMARK  187  A    between atoms: _453  and  _454
REMARK  188  A    between atoms: _456  and  _458
REMARK  189  A    between atoms: _458  and  _459
REMARK  190  A    between atoms: _458  and  _461
REMARK  191  A    between atoms: _461  and  _462
REMARK  192  A    between atoms: _465  and  _467
REMARK  193  A    between atoms: _467  and  _468
REMARK  194  A    between atoms: _470  and  _472
REMARK  195  A    between atoms: _472  and  _473
REMARK  196  A    between atoms: _475  and  _477
REMARK  197  A    between atoms: _477  and  _478
REMARK  198  A    between atoms: _477  and  _480
REMARK  199  A    between atoms: _480  and  _481
REMARK  200  A    between atoms: _487  and  _489
REMARK  201  A    between atoms: _489  and  _490
REMARK  202  A    between atoms: _489  and  _492
REMARK  203  A    between atoms: _492  and  _493
REMARK  204  A    between atoms: _496  and  _498
REMARK  205  A    between atoms: _498  and  _499
REMARK  206  A    between atoms: _498  and  _501
REMARK  207  A    between atoms: _504  and  _506
REMARK  208  A    between atoms: _506  and  _507
REMARK  209  A    between atoms: _506  and  _509
REMARK  210  A    between atoms: _509  and  _510
REMARK  211  A    between atoms: _513  and  _515
REMARK  212  A    between atoms: _515  and  _516
REMARK  213  A    between atoms: _515  and  _518
REMARK  214  A    between atoms: _518  and  _519
REMARK  215  A    between atoms: _523  and  _524
REMARK  216  A    between atoms: _529  and  _531
REMARK  217  A    between atoms: _531  and  _532
REMARK  218  A    between atoms: _531  and  _534
REMARK  219  A    between atoms: _537  and  _539
REMARK  220  A    between atoms: _539  and  _540
REMARK  221  A    between atoms: _539  and  _542
REMARK  222  A    between atoms: _542  and  _543
REMARK  223  A    between atoms: _548  and  _550
REMARK  224  A    between atoms: _550  and  _551
REMARK  225  A    between atoms: _550  and  _553
REMARK  226  A    between atoms: _553  and  _554
REMARK  227  A    between atoms: _557  and  _559
REMARK  228  A    between atoms: _559  and  _560
REMARK  229  A    between atoms: _559  and  _562
REMARK  230  A    between atoms: _562  and  _563
REMARK  231  A    between atoms: _566  and  _568
REMARK  232  A    between atoms: _568  and  _569
REMARK  233  A    between atoms: _571  and  _573
REMARK  234  A    between atoms: _573  and  _574
REMARK  235  A    between atoms: _573  and  _576
REMARK  236  A    between atoms: _576  and  _577
REMARK  237  A    between atoms: _577  and  _578
REMARK  238  A    between atoms: _578  and  _579
REMARK  239  A    between atoms: _588  and  _590
REMARK  240  A    between atoms: _590  and  _591
REMARK  241  A    between atoms: _590  and  _593
REMARK  242  A    between atoms: _593  and  _594
REMARK                            x       y       z     vdW  Elec       q    Type
REMARK                         _______ _______ _______ _____ _____    ______ ____
ROOT
ATOM      1  O   HOH     1       1.575  19.927  19.047  0.00  0.00    +0.000 OA
ENDROOT
TORSDOF 0
REMARK  Name = ../refined-set-2016/4zip/4zip_pocket.pdb
REMARK  242 active torsions:
REMARK  status: ('A' for Active; 'I' for Inactive)
REMARK    1  A    between atoms: _1  and  _3
REMARK    2  A    between atoms: _3  and  _4
REMARK    3  A    between atoms: _3  and  _6
REMARK    4  A    between atoms: _6  and  _7
REMARK    5  A    between atoms: _7  and  _8
REMARK    6  A    between atoms: _8  and  _9
REMARK    7  A    between atoms: _19  and  _20
REMARK    8  A    between atoms: _25  and  _27
REMARK    9  A    between atoms: _27  and  _28
REMARK   10  A    between atoms: _27  and  _30
REMARK   11  A    between atoms: _30  and  _31
REMARK   12  A    between atoms: _34  and  _36
REMARK   13  A    between atoms: _36  and  _37
REMARK   14  A    between atoms: _36  and  _39
REMARK   15  A    between atoms: _39  and  _40
REMARK   16  A    between atoms: _43  and  _45
REMARK   17  A    between atoms: _45  and  _46
REMARK   18  A    between atoms: _45  and  _48
REMARK   19  A    between atoms: _48  and  _49
REMARK   20  A    between atoms: _52  and  _54
REMARK   21  A    between atoms: _54  and  _55
REMARK   22  A    between atoms: _54  and  _57
REMARK   23  A    between atoms: _57  and  _58
REMARK   24  A    between atoms: _61  and  _63
REMARK   25  A    between atoms: _63  and  _64
REMARK   26  A    between atoms: _63  and  _66
REMARK   27  A    between atoms: _66  and  _67
REMARK   28  A    between atoms: _70  and  _72
REMARK   29  A    between atoms: _72  and  _73
REMARK   30  A    between atoms: _75  and  _77
REMARK   31  A    between atoms: _77  and  _78
REMARK   32  A    between atoms: _81  and  _83
REMARK   33  A    between atoms: _83  and  _84
REMARK   34  A    between atoms: _83  and  _86
REMARK   35  A    between atoms: _86  and  _87
REMARK   36  A    between atoms: _90  and  _92
REMARK   37  A    between atoms: _92  and  _93
REMARK   38  A    between atoms: _92  and  _95
REMARK   39  A    between atoms: _95  and  _96
REMARK   40  A    between atoms: _99  and  _101
REMARK   41  A    between atoms: _101  and  _102
REMARK   42  A    between atoms: _101  and  _104
REMARK   43  A    between atoms: _104  and  _105
REMARK   44  A    between atoms: _108  and  _110
REMARK   45  A    between atoms: _110  and  _111
REMARK   46  A    between atoms: _110  and  _113
REMARK   47  A    between atoms: _116  and  _118
REMARK   48  A    between atoms: _118  and  _119
REMARK   49  A    between atoms: _118  and  _121
REMARK   50  A    between atoms: _121  and  _122
REMARK   51  A    between atoms: _122  and  _123
REMARK   52  A    between atoms: _123  and  _124
REMARK   53  A    between atoms: _124  and  _125
REMARK   54  A    between atoms: _129  and  _131
REMARK   55  A    between atoms: _131  and  _132
REMARK   56  A    between atoms: _131  and  _134
REMARK   57  A    between atoms: _134  and  _135
REMARK   58  A    between atoms: _135  and  _136
REMARK   59  A    between atoms: _138  and  _140
REMARK   60  A    between atoms: _140  and  _141
REMARK   61  A    between atoms: _140  and  _143
REMARK   62  A    between atoms: _143  and  _144
REMARK   63  A    between atoms: _147  and  _149
REMARK   64  A    between atoms: _149  and  _150
REMARK   65  A    between atoms: _152  and  _154
REMARK   66  A    between atoms: _154  and  _155
REMARK   67  A    between atoms: _157  and  _159
REMARK   68  A    between atoms: _159  and  _160
REMARK   69  A    between atoms: _159  and  _162
REMARK   70  A    between atoms: _162  and  _163
REMARK   71  A    between atoms: _166  and  _168
REMARK   72  A    between atoms: _168  and  _169
REMARK   73  A    between atoms: _171  and  _173
REMARK   74  A    between atoms: _173  and  _174
REMARK   75  A    between atoms: _176  and  _178
REMARK   76  A    between atoms: _178  and  _179
REMARK   77  A    between atoms: _178  and  _181
REMARK   78  A    between atoms: _181  and  _182
REMARK   79  A    between atoms: _188  and  _190
REMARK   80  A    between atoms: _190  and  _191
REMARK   81  A    between atoms: _190  and  _193
REMARK   82  A    between atoms: _193  and  _194
REMARK   83  A    between atoms: _197  and  _199
REMARK   84  A    between atoms: _199  and  _200
REMARK   85  A    between atoms: _199  and  _202
REMARK   86  A    between atoms: _205  and  _207
REMARK   87  A    between atoms: _207  and  _208
REMARK   88  A    between atoms: _207  and  _210
REMARK   89  A    between atoms: _210  and  _211
REMARK   90  A    between atoms: _215  and  _216
REMARK   91  A    between atoms: _221  and  _223
REMARK   92  A    between atoms: _223  and  _224
REMARK   93  A    between atoms: _223  and  _226
REMARK   94  A    between atoms: _226  and  _227
REMARK   95  A    between atoms: _231  and  _232
REMARK   96  A    between atoms: _237  and  _239
REMARK   97  A    between atoms: _239  and  _240
REMARK   98  A    between atoms: _239  and  _242
REMARK   99  A    between atoms: _245  and  _247
REMARK  100  A    between atoms: _247  and  _248
REMARK  101  A    between atoms: _247  and  _250
REMARK  102  A    between atoms: _250  and  _251
REMARK  103  A    between atoms: _256  and  _258
REMARK  104  A    between atoms: _258  and  _259
REMARK  105  A    between atoms: _258  and  _261
REMARK  106  A    between atoms: _261  and  _262
REMARK  107  A    between atoms: _265  and  _267
REMARK  108  A    between atoms: _267  and  _268
REMARK  109  A    between atoms: _267  and  _270
REMARK  110  A    between atoms: _270  and  _271
REMARK  111  A    between atoms: _274  and  _276
REMARK  112  A    between atoms: _276  and  _277
REMARK  113  A    between atoms: _279  and  _281
REMARK  114  A    between atoms: _281  and  _282
REMARK  115  A    between atoms: _281  and  _284
REMARK  116  A    between atoms: _284  and  _285
REMARK  117  A    between atoms: _285  and  _286
REMARK  118  A    between atoms: _286  and  _287
REMARK  119  A    between atoms: _296  and  _298
REMARK  120  A    between atoms: _298  and  _299
REMARK  121  A    between atoms: _298  and  _301
REMARK  122  A    between atoms: _301  and  _302
REMARK  123  A    between atoms: _307  and  _309
REMARK  124  A    between atoms: _309  and  _310
REMARK  125  A    between atoms: _309  and  _312
REMARK  126  A    between atoms: _312  and  _313
REMARK  127  A    between atoms: _313  and  _314
REMARK  128  A    between atoms: _314  and  _315
REMARK  129  A    between atoms: _324  and  _326
REMARK  130  A    between atoms: _326  and  _327
REMARK  131  A    between atoms: _326  and  _329
REMARK  132  A    between atoms: _329  and  _330
REMARK  133  A    between atoms: _333  and  _335
REMARK  134  A    between atoms: _335  and  _336
REMARK  135  A    between atoms: _335  and  _338
REMARK  136  A    between atoms: _338  and  _339
REMARK  137  A    between atoms: _342  and  _344
REMARK  138  A    between atoms: _344  and  _345
REMARK  139  A    between atoms: _344  and  _347
REMARK  140  A    between atoms: _347  and  _348
REMARK  141  A    between atoms: _351  and  _353
REMARK  142  A    between atoms: _353  and  _354
REMARK  143  A    between atoms: _353  and  _356
REMARK  144  A    between atoms: _356  and  _357
REMARK  145  A    between atoms: _360  and  _362
REMARK  146  A    between atoms: _362  and  _363
REMARK  147  A    between atoms: _365  and  _367
REMARK  148  A    between atoms: _367  and  _368
REMARK  149  A    between atoms: _371  and  _373
REMARK  150  A    between atoms: _373  and  _374
REMARK  151  A    between atoms: _373  and  _376
REMARK  152  A    between atoms: _376  and  _377
REMARK  153  A    between atoms: _380  and  _382
REMARK  154  A    between atoms: _382  and  _383
REMARK  155  A    between atoms: _382  and  _385
REMARK  156  A    between atoms: _385  and  _386
REMARK  157  A    between atoms: _389  and  _391
REMARK  158  A    between atoms: _391  and  _392
REMARK  159  A    between atoms: _391  and  _394
REMARK  160  A    between atoms: _394  and  _395
REMARK  161  A    between atoms: _398  and  _400
REMARK  162  A    between atoms: _400  and  _401
REMARK  163  A    between atoms: _400  and  _403
REMARK  164  A    between atoms: _406  and  _408
REMARK  165  A    between atoms: _408  and  _409
REMARK  166  A    between atoms: _408  and  _411
REMARK  167  A    between atoms: _411  and  _412
REMARK  168  A    between atoms: _415  and  _417
REMARK  169  A    between atoms: _417  and  _418
REMARK  170  A    between atoms: _417  and  _420
REMARK  171  A    between atoms: _420  and  _421
REMARK  172  A    between atoms: _421  and  _422
REMARK  173  A    between atoms: _422  and  _423
REMARK  174  A    between atoms: _423  and  _424
REMARK  175  A    between atoms: _428  and  _430
REMARK  176  A    between atoms: _430  and  _431
REMARK  177  A    between atoms: _430  and  _433
REMARK  178  A    between atoms: _433  and  _434
REMARK  179  A    between atoms: _434  and  _435
REMARK  180  A    between atoms: _437  and  _439
REMARK  181  A    between atoms: _439  and  _440
REMARK  182  A    between atoms: _439  and  _442
REMARK  183  A    between atoms: _442  and  _443
REMARK  184  A    between atoms: _446  and  _448
REMARK  185  A    between atoms: _448  and  _449
REMARK  186  A    between atoms: _451  and  _453
REMARK  187  A    between atoms: _453  and  _454
REMARK  188  A    between atoms: _456  and  _458
REMARK  189  A    between atoms: _458  and  _459
REMARK  190  A    between atoms: _458  and  _461
REMARK  191  A    between atoms: _461  and  _462
REMARK  192  A    between atoms: _465  and  _467
REMARK  193  A    between atoms: _467  and  _468
REMARK  194  A    between atoms: _470  and  _472
REMARK  195  A    between atoms: _472  and  _473
REMARK  196  A    between atoms: _475  and  _477
REMARK  197  A    between atoms: _477  and  _478
REMARK  198  A    between atoms: _477  and  _480
REMARK  199  A    between atoms: _480  and  _481
REMARK  200  A    between atoms: _487  and  _489
REMARK  201  A    between atoms: _489  and  _490
REMARK  202  A    between atoms: _489  and  _492
REMARK  203  A    between atoms: _492  and  _493
REMARK  204  A    between atoms: _496  and  _498
REMARK  205  A    between atoms: _498  and  _499
REMARK  206  A    between atoms: _498  and  _501
REMARK  207  A    between atoms: _504  and  _506
REMARK  208  A    between atoms: _506  and  _507
REMARK  209  A    between atoms: _506  and  _509
REMARK  210  A    between atoms: _509  and  _510
REMARK  211  A    between atoms: _513  and  _515
REMARK  212  A    between atoms: _515  and  _516
REMARK  213  A    between atoms: _515  and  _518
REMARK  214  A    between atoms: _518  and  _519
REMARK  215  A    between atoms: _523  and  _524
REMARK  216  A    between atoms: _529  and  _531
REMARK  217  A    between atoms: _531  and  _532
REMARK  218  A    between atoms: _531  and  _534
REMARK  219  A    between atoms: _537  and  _539
REMARK  220  A    between atoms: _539  and  _540
REMARK  221  A    between atoms: _539  and  _542
REMARK  222  A    between atoms: _542  and  _543
REMARK  223  A    between atoms: _548  and  _550
REMARK  224  A    between atoms: _550  and  _551
REMARK  225  A    between atoms: _550  and  _553
REMARK  226  A    between atoms: _553  and  _554
REMARK  227  A    between atoms: _557  and  _559
REMARK  228  A    between atoms: _559  and  _560
REMARK  229  A    between atoms: _559  and  _562
REMARK  230  A    between atoms: _562  and  _563
REMARK  231  A    between atoms: _566  and  _568
REMARK  232  A    between atoms: _568  and  _569
REMARK  233  A    between atoms: _571  and  _573
REMARK  234  A    between atoms: _573  and  _574
REMARK  235  A    between atoms: _573  and  _576
REMARK  236  A    between atoms: _576  and  _577
REMARK  237  A    between atoms: _577  and  _578
REMARK  238  A    between atoms: _578  and  _579
REMARK  239  A    between atoms: _588  and  _590
REMARK  240  A    between atoms: _590  and  _591
REMARK  241  A    between atoms: _590  and  _593
REMARK  242  A    between atoms: _593  and  _594
REMARK                            x       y       z     vdW  Elec       q    Type
REMARK                         _______ _______ _______ _____ _____    ______ ____
ROOT
ATOM      1  O   HOH     1      10.890  14.803  13.039  0.00  0.00    +0.000 OA
ENDROOT
TORSDOF 0
REMARK  Name = ../refined-set-2016/4zip/4zip_pocket.pdb
REMARK  242 active torsions:
REMARK  status: ('A' for Active; 'I' for Inactive)
REMARK    1  A    between atoms: _1  and  _3
REMARK    2  A    between atoms: _3  and  _4
REMARK    3  A    between atoms: _3  and  _6
REMARK    4  A    between atoms: _6  and  _7
REMARK    5  A    between atoms: _7  and  _8
REMARK    6  A    between atoms: _8  and  _9
REMARK    7  A    between atoms: _19  and  _20
REMARK    8  A    between atoms: _25  and  _27
REMARK    9  A    between atoms: _27  and  _28
REMARK   10  A    between atoms: _27  and  _30
REMARK   11  A    between atoms: _30  and  _31
REMARK   12  A    between atoms: _34  and  _36
REMARK   13  A    between atoms: _36  and  _37
REMARK   14  A    between atoms: _36  and  _39
REMARK   15  A    between atoms: _39  and  _40
REMARK   16  A    between atoms: _43  and  _45
REMARK   17  A    between atoms: _45  and  _46
REMARK   18  A    between atoms: _45  and  _48
REMARK   19  A    between atoms: _48  and  _49
REMARK   20  A    between atoms: _52  and  _54
REMARK   21  A    between atoms: _54  and  _55
REMARK   22  A    between atoms: _54  and  _57
REMARK   23  A    between atoms: _57  and  _58
REMARK   24  A    between atoms: _61  and  _63
REMARK   25  A    between atoms: _63  and  _64
REMARK   26  A    between atoms: _63  and  _66
REMARK   27  A    between atoms: _66  and  _67
REMARK   28  A    between atoms: _70  and  _72
REMARK   29  A    between atoms: _72  and  _73
REMARK   30  A    between atoms: _75  and  _77
REMARK   31  A    between atoms: _77  and  _78
REMARK   32  A    between atoms: _81  and  _83
REMARK   33  A    between atoms: _83  and  _84
REMARK   34  A    between atoms: _83  and  _86
REMARK   35  A    between atoms: _86  and  _87
REMARK   36  A    between atoms: _90  and  _92
REMARK   37  A    between atoms: _92  and  _93
REMARK   38  A    between atoms: _92  and  _95
REMARK   39  A    between atoms: _95  and  _96
REMARK   40  A    between atoms: _99  and  _101
REMARK   41  A    between atoms: _101  and  _102
REMARK   42  A    between atoms: _101  and  _104
REMARK   43  A    between atoms: _104  and  _105
REMARK   44  A    between atoms: _108  and  _110
REMARK   45  A    between atoms: _110  and  _111
REMARK   46  A    between atoms: _110  and  _113
REMARK   47  A    between atoms: _116  and  _118
REMARK   48  A    between atoms: _118  and  _119
REMARK   49  A    between atoms: _118  and  _121
REMARK   50  A    between atoms: _121  and  _122
REMARK   51  A    between atoms: _122  and  _123
REMARK   52  A    between atoms: _123  and  _124
REMARK   53  A    between atoms: _124  and  _125
REMARK   54  A    between atoms: _129  and  _131
REMARK   55  A    between atoms: _131  and  _132
REMARK   56  A    between atoms: _131  and  _134
REMARK   57  A    between atoms: _134  and  _135
REMARK   58  A    between atoms: _135  and  _136
REMARK   59  A    between atoms: _138  and  _140
REMARK   60  A    between atoms: _140  and  _141
REMARK   61  A    between atoms: _140  and  _143
REMARK   62  A    between atoms: _143  and  _144
REMARK   63  A    between atoms: _147  and  _149
REMARK   64  A    between atoms: _149  and  _150
REMARK   65  A    between atoms: _152  and  _154
REMARK   66  A    between atoms: _154  and  _155
REMARK   67  A    between atoms: _157  and  _159
REMARK   68  A    between atoms: _159  and  _160
REMARK   69  A    between atoms: _159  and  _162
REMARK   70  A    between atoms: _162  and  _163
REMARK   71  A    between atoms: _166  and  _168
REMARK   72  A    between atoms: _168  and  _169
REMARK   73  A    between atoms: _171  and  _173
REMARK   74  A    between atoms: _173  and  _174
REMARK   75  A    between atoms: _176  and  _178
REMARK   76  A    between atoms: _178  and  _179
REMARK   77  A    between atoms: _178  and  _181
REMARK   78  A    between atoms: _181  and  _182
REMARK   79  A    between atoms: _188  and  _190
REMARK   80  A    between atoms: _190  and  _191
REMARK   81  A    between atoms: _190  and  _193
REMARK   82  A    between atoms: _193  and  _194
REMARK   83  A    between atoms: _197  and  _199
REMARK   84  A    between atoms: _199  and  _200
REMARK   85  A    between atoms: _199  and  _202
REMARK   86  A    between atoms: _205  and  _207
REMARK   87  A    between atoms: _207  and  _208
REMARK   88  A    between atoms: _207  and  _210
REMARK   89  A    between atoms: _210  and  _211
REMARK   90  A    between atoms: _215  and  _216
REMARK   91  A    between atoms: _221  and  _223
REMARK   92  A    between atoms: _223  and  _224
REMARK   93  A    between atoms: _223  and  _226
REMARK   94  A    between atoms: _226  and  _227
REMARK   95  A    between atoms: _231  and  _232
REMARK   96  A    between atoms: _237  and  _239
REMARK   97  A    between atoms: _239  and  _240
REMARK   98  A    between atoms: _239  and  _242
REMARK   99  A    between atoms: _245  and  _247
REMARK  100  A    between atoms: _247  and  _248
REMARK  101  A    between atoms: _247  and  _250
REMARK  102  A    between atoms: _250  and  _251
REMARK  103  A    between atoms: _256  and  _258
REMARK  104  A    between atoms: _258  and  _259
REMARK  105  A    between atoms: _258  and  _261
REMARK  106  A    between atoms: _261  and  _262
REMARK  107  A    between atoms: _265  and  _267
REMARK  108  A    between atoms: _267  and  _268
REMARK  109  A    between atoms: _267  and  _270
REMARK  110  A    between atoms: _270  and  _271
REMARK  111  A    between atoms: _274  and  _276
REMARK  112  A    between atoms: _276  and  _277
REMARK  113  A    between atoms: _279  and  _281
REMARK  114  A    between atoms: _281  and  _282
REMARK  115  A    between atoms: _281  and  _284
REMARK  116  A    between atoms: _284  and  _285
REMARK  117  A    between atoms: _285  and  _286
REMARK  118  A    between atoms: _286  and  _287
REMARK  119  A    between atoms: _296  and  _298
REMARK  120  A    between atoms: _298  and  _299
REMARK  121  A    between atoms: _298  and  _301
REMARK  122  A    between atoms: _301  and  _302
REMARK  123  A    between atoms: _307  and  _309
REMARK  124  A    between atoms: _309  and  _310
REMARK  125  A    between atoms: _309  and  _312
REMARK  126  A    between atoms: _312  and  _313
REMARK  127  A    between atoms: _313  and  _314
REMARK  128  A    between atoms: _314  and  _315
REMARK  129  A    between atoms: _324  and  _326
REMARK  130  A    between atoms: _326  and  _327
REMARK  131  A    between atoms: _326  and  _329
REMARK  132  A    between atoms: _329  and  _330
REMARK  133  A    between atoms: _333  and  _335
REMARK  134  A    between atoms: _335  and  _336
REMARK  135  A    between atoms: _335  and  _338
REMARK  136  A    between atoms: _338  and  _339
REMARK  137  A    between atoms: _342  and  _344
REMARK  138  A    between atoms: _344  and  _345
REMARK  139  A    between atoms: _344  and  _347
REMARK  140  A    between atoms: _347  and  _348
REMARK  141  A    between atoms: _351  and  _353
REMARK  142  A    between atoms: _353  and  _354
REMARK  143  A    between atoms: _353  and  _356
REMARK  144  A    between atoms: _356  and  _357
REMARK  145  A    between atoms: _360  and  _362
REMARK  146  A    between atoms: _362  and  _363
REMARK  147  A    between atoms: _365  and  _367
REMARK  148  A    between atoms: _367  and  _368
REMARK  149  A    between atoms: _371  and  _373
REMARK  150  A    between atoms: _373  and  _374
REMARK  151  A    between atoms: _373  and  _376
REMARK  152  A    between atoms: _376  and  _377
REMARK  153  A    between atoms: _380  and  _382
REMARK  154  A    between atoms: _382  and  _383
REMARK  155  A    between atoms: _382  and  _385
REMARK  156  A    between atoms: _385  and  _386
REMARK  157  A    between atoms: _389  and  _391
REMARK  158  A    between atoms: _391  and  _392
REMARK  159  A    between atoms: _391  and  _394
REMARK  160  A    between atoms: _394  and  _395
REMARK  161  A    between atoms: _398  and  _400
REMARK  162  A    between atoms: _400  and  _401
REMARK  163  A    between atoms: _400  and  _403
REMARK  164  A    between atoms: _406  and  _408
REMARK  165  A    between atoms: _408  and  _409
REMARK  166  A    between atoms: _408  and  _411
REMARK  167  A    between atoms: _411  and  _412
REMARK  168  A    between atoms: _415  and  _417
REMARK  169  A    between atoms: _417  and  _418
REMARK  170  A    between atoms: _417  and  _420
REMARK  171  A    between atoms: _420  and  _421
REMARK  172  A    between atoms: _421  and  _422
REMARK  173  A    between atoms: _422  and  _423
REMARK  174  A    between atoms: _423  and  _424
REMARK  175  A    between atoms: _428  and  _430
REMARK  176  A    between atoms: _430  and  _431
REMARK  177  A    between atoms: _430  and  _433
REMARK  178  A    between atoms: _433  and  _434
REMARK  179  A    between atoms: _434  and  _435
REMARK  180  A    between atoms: _437  and  _439
REMARK  181  A    between atoms: _439  and  _440
REMARK  182  A    between atoms: _439  and  _442
REMARK  183  A    between atoms: _442  and  _443
REMARK  184  A    between atoms: _446  and  _448
REMARK  185  A    between atoms: _448  and  _449
REMARK  186  A    between atoms: _451  and  _453
REMARK  187  A    between atoms: _453  and  _454
REMARK  188  A    between atoms: _456  and  _458
REMARK  189  A    between atoms: _458  and  _459
REMARK  190  A    between atoms: _458  and  _461
REMARK  191  A    between atoms: _461  and  _462
REMARK  192  A    between atoms: _465  and  _467
REMARK  193  A    between atoms: _467  and  _468
REMARK  194  A    between atoms: _470  and  _472
REMARK  195  A    between atoms: _472  and  _473
REMARK  196  A    between atoms: _475  and  _477
REMARK  197  A    between atoms: _477  and  _478
REMARK  198  A    between atoms: _477  and  _480
REMARK  199  A    between atoms: _480  and  _481
REMARK  200  A    between atoms: _487  and  _489
REMARK  201  A    between atoms: _489  and  _490
REMARK  202  A    between atoms: _489  and  _492
REMARK  203  A    between atoms: _492  and  _493
REMARK  204  A    between atoms: _496  and  _498
REMARK  205  A    between atoms: _498  and  _499
REMARK  206  A    between atoms: _498  and  _501
REMARK  207  A    between atoms: _504  and  _506
REMARK  208  A    between atoms: _506  and  _507
REMARK  209  A    between atoms: _506  and  _509
REMARK  210  A    between atoms: _509  and  _510
REMARK  211  A    between atoms: _513  and  _515
REMARK  212  A    between atoms: _515  and  _516
REMARK  213  A    between atoms: _515  and  _518
REMARK  214  A    between atoms: _518  and  _519
REMARK  215  A    between atoms: _523  and  _524
REMARK  216  A    between atoms: _529  and  _531
REMARK  217  A    between atoms: _531  and  _532
REMARK  218  A    between atoms: _531  and  _534
REMARK  219  A    between atoms: _537  and  _539
REMARK  220  A    between atoms: _539  and  _540
REMARK  221  A    between atoms: _539  and  _542
REMARK  222  A    between atoms: _542  and  _543
REMARK  223  A    between atoms: _548  and  _550
REMARK  224  A    between atoms: _550  and  _551
REMARK  225  A    between atoms: _550  and  _553
REMARK  226  A    between atoms: _553  and  _554
REMARK  227  A    between atoms: _557  and  _559
REMARK  228  A    between atoms: _559  and  _560
REMARK  229  A    between atoms: _559  and  _562
REMARK  230  A    between atoms: _562  and  _563
REMARK  231  A    between atoms: _566  and  _568
REMARK  232  A    between atoms: _568  and  _569
REMARK  233  A    between atoms: _571  and  _573
REMARK  234  A    between atoms: _573  and  _574
REMARK  235  A    between atoms: _573  and  _576
REMARK  236  A    between atoms: _576  and  _577
REMARK  237  A    between atoms: _577  and  _578
REMARK  238  A    between atoms: _578  and  _579
REMARK  239  A    between atoms: _588  and  _590
REMARK  240  A    between atoms: _590  and  _591
REMARK  241  A    between atoms: _590  and  _593
REMARK  242  A    between atoms: _593  and  _594
REMARK                            x       y       z     vdW  Elec       q    Type
REMARK                         _______ _______ _______ _____ _____    ______ ____
ROOT
ATOM      1  O   HOH     1      22.114  27.416  22.840  0.00  0.00    +0.000 OA
ENDROOT
TORSDOF 0
REMARK  Name = ../refined-set-2016/4zip/4zip_pocket.pdb
REMARK  242 active torsions:
REMARK  status: ('A' for Active; 'I' for Inactive)
REMARK    1  A    between atoms: _1  and  _3
REMARK    2  A    between atoms: _3  and  _4
REMARK    3  A    between atoms: _3  and  _6
REMARK    4  A    between atoms: _6  and  _7
REMARK    5  A    between atoms: _7  and  _8
REMARK    6  A    between atoms: _8  and  _9
REMARK    7  A    between atoms: _19  and  _20
REMARK    8  A    between atoms: _25  and  _27
REMARK    9  A    between atoms: _27  and  _28
REMARK   10  A    between atoms: _27  and  _30
REMARK   11  A    between atoms: _30  and  _31
REMARK   12  A    between atoms: _34  and  _36
REMARK   13  A    between atoms: _36  and  _37
REMARK   14  A    between atoms: _36  and  _39
REMARK   15  A    between atoms: _39  and  _40
REMARK   16  A    between atoms: _43  and  _45
REMARK   17  A    between atoms: _45  and  _46
REMARK   18  A    between atoms: _45  and  _48
REMARK   19  A    between atoms: _48  and  _49
REMARK   20  A    between atoms: _52  and  _54
REMARK   21  A    between atoms: _54  and  _55
REMARK   22  A    between atoms: _54  and  _57
REMARK   23  A    between atoms: _57  and  _58
REMARK   24  A    between atoms: _61  and  _63
REMARK   25  A    between atoms: _63  and  _64
REMARK   26  A    between atoms: _63  and  _66
REMARK   27  A    between atoms: _66  and  _67
REMARK   28  A    between atoms: _70  and  _72
REMARK   29  A    between atoms: _72  and  _73
REMARK   30  A    between atoms: _75  and  _77
REMARK   31  A    between atoms: _77  and  _78
REMARK   32  A    between atoms: _81  and  _83
REMARK   33  A    between atoms: _83  and  _84
REMARK   34  A    between atoms: _83  and  _86
REMARK   35  A    between atoms: _86  and  _87
REMARK   36  A    between atoms: _90  and  _92
REMARK   37  A    between atoms: _92  and  _93
REMARK   38  A    between atoms: _92  and  _95
REMARK   39  A    between atoms: _95  and  _96
REMARK   40  A    between atoms: _99  and  _101
REMARK   41  A    between atoms: _101  and  _102
REMARK   42  A    between atoms: _101  and  _104
REMARK   43  A    between atoms: _104  and  _105
REMARK   44  A    between atoms: _108  and  _110
REMARK   45  A    between atoms: _110  and  _111
REMARK   46  A    between atoms: _110  and  _113
REMARK   47  A    between atoms: _116  and  _118
REMARK   48  A    between atoms: _118  and  _119
REMARK   49  A    between atoms: _118  and  _121
REMARK   50  A    between atoms: _121  and  _122
REMARK   51  A    between atoms: _122  and  _123
REMARK   52  A    between atoms: _123  and  _124
REMARK   53  A    between atoms: _124  and  _125
REMARK   54  A    between atoms: _129  and  _131
REMARK   55  A    between atoms: _131  and  _132
REMARK   56  A    between atoms: _131  and  _134
REMARK   57  A    between atoms: _134  and  _135
REMARK   58  A    between atoms: _135  and  _136
REMARK   59  A    between atoms: _138  and  _140
REMARK   60  A    between atoms: _140  and  _141
REMARK   61  A    between atoms: _140  and  _143
REMARK   62  A    between atoms: _143  and  _144
REMARK   63  A    between atoms: _147  and  _149
REMARK   64  A    between atoms: _149  and  _150
REMARK   65  A    between atoms: _152  and  _154
REMARK   66  A    between atoms: _154  and  _155
REMARK   67  A    between atoms: _157  and  _159
REMARK   68  A    between atoms: _159  and  _160
REMARK   69  A    between atoms: _159  and  _162
REMARK   70  A    between atoms: _162  and  _163
REMARK   71  A    between atoms: _166  and  _168
REMARK   72  A    between atoms: _168  and  _169
REMARK   73  A    between atoms: _171  and  _173
REMARK   74  A    between atoms: _173  and  _174
REMARK   75  A    between atoms: _176  and  _178
REMARK   76  A    between atoms: _178  and  _179
REMARK   77  A    between atoms: _178  and  _181
REMARK   78  A    between atoms: _181  and  _182
REMARK   79  A    between atoms: _188  and  _190
REMARK   80  A    between atoms: _190  and  _191
REMARK   81  A    between atoms: _190  and  _193
REMARK   82  A    between atoms: _193  and  _194
REMARK   83  A    between atoms: _197  and  _199
REMARK   84  A    between atoms: _199  and  _200
REMARK   85  A    between atoms: _199  and  _202
REMARK   86  A    between atoms: _205  and  _207
REMARK   87  A    between atoms: _207  and  _208
REMARK   88  A    between atoms: _207  and  _210
REMARK   89  A    between atoms: _210  and  _211
REMARK   90  A    between atoms: _215  and  _216
REMARK   91  A    between atoms: _221  and  _223
REMARK   92  A    between atoms: _223  and  _224
REMARK   93  A    between atoms: _223  and  _226
REMARK   94  A    between atoms: _226  and  _227
REMARK   95  A    between atoms: _231  and  _232
REMARK   96  A    between atoms: _237  and  _239
REMARK   97  A    between atoms: _239  and  _240
REMARK   98  A    between atoms: _239  and  _242
REMARK   99  A    between atoms: _245  and  _247
REMARK  100  A    between atoms: _247  and  _248
REMARK  101  A    between atoms: _247  and  _250
REMARK  102  A    between atoms: _250  and  _251
REMARK  103  A    between atoms: _256  and  _258
REMARK  104  A    between atoms: _258  and  _259
REMARK  105  A    between atoms: _258  and  _261
REMARK  106  A    between atoms: _261  and  _262
REMARK  107  A    between atoms: _265  and  _267
REMARK  108  A    between atoms: _267  and  _268
REMARK  109  A    between atoms: _267  and  _270
REMARK  110  A    between atoms: _270  and  _271
REMARK  111  A    between atoms: _274  and  _276
REMARK  112  A    between atoms: _276  and  _277
REMARK  113  A    between atoms: _279  and  _281
REMARK  114  A    between atoms: _281  and  _282
REMARK  115  A    between atoms: _281  and  _284
REMARK  116  A    between atoms: _284  and  _285
REMARK  117  A    between atoms: _285  and  _286
REMARK  118  A    between atoms: _286  and  _287
REMARK  119  A    between atoms: _296  and  _298
REMARK  120  A    between atoms: _298  and  _299
REMARK  121  A    between atoms: _298  and  _301
REMARK  122  A    between atoms: _301  and  _302
REMARK  123  A    between atoms: _307  and  _309
REMARK  124  A    between atoms: _309  and  _310
REMARK  125  A    between atoms: _309  and  _312
REMARK  126  A    between atoms: _312  and  _313
REMARK  127  A    between atoms: _313  and  _314
REMARK  128  A    between atoms: _314  and  _315
REMARK  129  A    between atoms: _324  and  _326
REMARK  130  A    between atoms: _326  and  _327
REMARK  131  A    between atoms: _326  and  _329
REMARK  132  A    between atoms: _329  and  _330
REMARK  133  A    between atoms: _333  and  _335
REMARK  134  A    between atoms: _335  and  _336
REMARK  135  A    between atoms: _335  and  _338
REMARK  136  A    between atoms: _338  and  _339
REMARK  137  A    between atoms: _342  and  _344
REMARK  138  A    between atoms: _344  and  _345
REMARK  139  A    between atoms: _344  and  _347
REMARK  140  A    between atoms: _347  and  _348
REMARK  141  A    between atoms: _351  and  _353
REMARK  142  A    between atoms: _353  and  _354
REMARK  143  A    between atoms: _353  and  _356
REMARK  144  A    between atoms: _356  and  _357
REMARK  145  A    between atoms: _360  and  _362
REMARK  146  A    between atoms: _362  and  _363
REMARK  147  A    between atoms: _365  and  _367
REMARK  148  A    between atoms: _367  and  _368
REMARK  149  A    between atoms: _371  and  _373
REMARK  150  A    between atoms: _373  and  _374
REMARK  151  A    between atoms: _373  and  _376
REMARK  152  A    between atoms: _376  and  _377
REMARK  153  A    between atoms: _380  and  _382
REMARK  154  A    between atoms: _382  and  _383
REMARK  155  A    between atoms: _382  and  _385
REMARK  156  A    between atoms: _385  and  _386
REMARK  157  A    between atoms: _389  and  _391
REMARK  158  A    between atoms: _391  and  _392
REMARK  159  A    between atoms: _391  and  _394
REMARK  160  A    between atoms: _394  and  _395
REMARK  161  A    between atoms: _398  and  _400
REMARK  162  A    between atoms: _400  and  _401
REMARK  163  A    between atoms: _400  and  _403
REMARK  164  A    between atoms: _406  and  _408
REMARK  165  A    between atoms: _408  and  _409
REMARK  166  A    between atoms: _408  and  _411
REMARK  167  A    between atoms: _411  and  _412
REMARK  168  A    between atoms: _415  and  _417
REMARK  169  A    between atoms: _417  and  _418
REMARK  170  A    between atoms: _417  and  _420
REMARK  171  A    between atoms: _420  and  _421
REMARK  172  A    between atoms: _421  and  _422
REMARK  173  A    between atoms: _422  and  _423
REMARK  174  A    between atoms: _423  and  _424
REMARK  175  A    between atoms: _428  and  _430
REMARK  176  A    between atoms: _430  and  _431
REMARK  177  A    between atoms: _430  and  _433
REMARK  178  A    between atoms: _433  and  _434
REMARK  179  A    between atoms: _434  and  _435
REMARK  180  A    between atoms: _437  and  _439
REMARK  181  A    between atoms: _439  and  _440
REMARK  182  A    between atoms: _439  and  _442
REMARK  183  A    between atoms: _442  and  _443
REMARK  184  A    between atoms: _446  and  _448
REMARK  185  A    between atoms: _448  and  _449
REMARK  186  A    between atoms: _451  and  _453
REMARK  187  A    between atoms: _453  and  _454
REMARK  188  A    between atoms: _456  and  _458
REMARK  189  A    between atoms: _458  and  _459
REMARK  190  A    between atoms: _458  and  _461
REMARK  191  A    between atoms: _461  and  _462
REMARK  192  A    between atoms: _465  and  _467
REMARK  193  A    between atoms: _467  and  _468
REMARK  194  A    between atoms: _470  and  _472
REMARK  195  A    between atoms: _472  and  _473
REMARK  196  A    between atoms: _475  and  _477
REMARK  197  A    between atoms: _477  and  _478
REMARK  198  A    between atoms: _477  and  _480
REMARK  199  A    between atoms: _480  and  _481
REMARK  200  A    between atoms: _487  and  _489
REMARK  201  A    between atoms: _489  and  _490
REMARK  202  A    between atoms: _489  and  _492
REMARK  203  A    between atoms: _492  and  _493
REMARK  204  A    between atoms: _496  and  _498
REMARK  205  A    between atoms: _498  and  _499
REMARK  206  A    between atoms: _498  and  _501
REMARK  207  A    between atoms: _504  and  _506
REMARK  208  A    between atoms: _506  and  _507
REMARK  209  A    between atoms: _506  and  _509
REMARK  210  A    between atoms: _509  and  _510
REMARK  211  A    between atoms: _513  and  _515
REMARK  212  A    between atoms: _515  and  _516
REMARK  213  A    between atoms: _515  and  _518
REMARK  214  A    between atoms: _518  and  _519
REMARK  215  A    between atoms: _523  and  _524
REMARK  216  A    between atoms: _529  and  _531
REMARK  217  A    between atoms: _531  and  _532
REMARK  218  A    between atoms: _531  and  _534
REMARK  219  A    between atoms: _537  and  _539
REMARK  220  A    between atoms: _539  and  _540
REMARK  221  A    between atoms: _539  and  _542
REMARK  222  A    between atoms: _542  and  _543
REMARK  223  A    between atoms: _548  and  _550
REMARK  224  A    between atoms: _550  and  _551
REMARK  225  A    between atoms: _550  and  _553
REMARK  226  A    between atoms: _553  and  _554
REMARK  227  A    between atoms: _557  and  _559
REMARK  228  A    between atoms: _559  and  _560
REMARK  229  A    between atoms: _559  and  _562
REMARK  230  A    between atoms: _562  and  _563
REMARK  231  A    between atoms: _566  and  _568
REMARK  232  A    between atoms: _568  and  _569
REMARK  233  A    between atoms: _571  and  _573
REMARK  234  A    between atoms: _573  and  _574
REMARK  235  A    between atoms: _573  and  _576
REMARK  236  A    between atoms: _576  and  _577
REMARK  237  A    between atoms: _577  and  _578
REMARK  238  A    between atoms: _578  and  _579
REMARK  239  A    between atoms: _588  and  _590
REMARK  240  A    between atoms: _590  and  _591
REMARK  241  A    between atoms: _590  and  _593
REMARK  242  A    between atoms: _593  and  _594
REMARK                            x       y       z     vdW  Elec       q    Type
REMARK                         _______ _______ _______ _____ _____    ______ ____
ROOT
ATOM      1  O   HOH     1      10.839  14.792  16.632  0.00  0.00    +0.000 OA
ENDROOT
TORSDOF 0
REMARK  Name = ../refined-set-2016/4zip/4zip_pocket.pdb
REMARK  242 active torsions:
REMARK  status: ('A' for Active; 'I' for Inactive)
REMARK    1  A    between atoms: _1  and  _3
REMARK    2  A    between atoms: _3  and  _4
REMARK    3  A    between atoms: _3  and  _6
REMARK    4  A    between atoms: _6  and  _7
REMARK    5  A    between atoms: _7  and  _8
REMARK    6  A    between atoms: _8  and  _9
REMARK    7  A    between atoms: _19  and  _20
REMARK    8  A    between atoms: _25  and  _27
REMARK    9  A    between atoms: _27  and  _28
REMARK   10  A    between atoms: _27  and  _30
REMARK   11  A    between atoms: _30  and  _31
REMARK   12  A    between atoms: _34  and  _36
REMARK   13  A    between atoms: _36  and  _37
REMARK   14  A    between atoms: _36  and  _39
REMARK   15  A    between atoms: _39  and  _40
REMARK   16  A    between atoms: _43  and  _45
REMARK   17  A    between atoms: _45  and  _46
REMARK   18  A    between atoms: _45  and  _48
REMARK   19  A    between atoms: _48  and  _49
REMARK   20  A    between atoms: _52  and  _54
REMARK   21  A    between atoms: _54  and  _55
REMARK   22  A    between atoms: _54  and  _57
REMARK   23  A    between atoms: _57  and  _58
REMARK   24  A    between atoms: _61  and  _63
REMARK   25  A    between atoms: _63  and  _64
REMARK   26  A    between atoms: _63  and  _66
REMARK   27  A    between atoms: _66  and  _67
REMARK   28  A    between atoms: _70  and  _72
REMARK   29  A    between atoms: _72  and  _73
REMARK   30  A    between atoms: _75  and  _77
REMARK   31  A    between atoms: _77  and  _78
REMARK   32  A    between atoms: _81  and  _83
REMARK   33  A    between atoms: _83  and  _84
REMARK   34  A    between atoms: _83  and  _86
REMARK   35  A    between atoms: _86  and  _87
REMARK   36  A    between atoms: _90  and  _92
REMARK   37  A    between atoms: _92  and  _93
REMARK   38  A    between atoms: _92  and  _95
REMARK   39  A    between atoms: _95  and  _96
REMARK   40  A    between atoms: _99  and  _101
REMARK   41  A    between atoms: _101  and  _102
REMARK   42  A    between atoms: _101  and  _104
REMARK   43  A    between atoms: _104  and  _105
REMARK   44  A    between atoms: _108  and  _110
REMARK   45  A    between atoms: _110  and  _111
REMARK   46  A    between atoms: _110  and  _113
REMARK   47  A    between atoms: _116  and  _118
REMARK   48  A    between atoms: _118  and  _119
REMARK   49  A    between atoms: _118  and  _121
REMARK   50  A    between atoms: _121  and  _122
REMARK   51  A    between atoms: _122  and  _123
REMARK   52  A    between atoms: _123  and  _124
REMARK   53  A    between atoms: _124  and  _125
REMARK   54  A    between atoms: _129  and  _131
REMARK   55  A    between atoms: _131  and  _132
REMARK   56  A    between atoms: _131  and  _134
REMARK   57  A    between atoms: _134  and  _135
REMARK   58  A    between atoms: _135  and  _136
REMARK   59  A    between atoms: _138  and  _140
REMARK   60  A    between atoms: _140  and  _141
REMARK   61  A    between atoms: _140  and  _143
REMARK   62  A    between atoms: _143  and  _144
REMARK   63  A    between atoms: _147  and  _149
REMARK   64  A    between atoms: _149  and  _150
REMARK   65  A    between atoms: _152  and  _154
REMARK   66  A    between atoms: _154  and  _155
REMARK   67  A    between atoms: _157  and  _159
REMARK   68  A    between atoms: _159  and  _160
REMARK   69  A    between atoms: _159  and  _162
REMARK   70  A    between atoms: _162  and  _163
REMARK   71  A    between atoms: _166  and  _168
REMARK   72  A    between atoms: _168  and  _169
REMARK   73  A    between atoms: _171  and  _173
REMARK   74  A    between atoms: _173  and  _174
REMARK   75  A    between atoms: _176  and  _178
REMARK   76  A    between atoms: _178  and  _179
REMARK   77  A    between atoms: _178  and  _181
REMARK   78  A    between atoms: _181  and  _182
REMARK   79  A    between atoms: _188  and  _190
REMARK   80  A    between atoms: _190  and  _191
REMARK   81  A    between atoms: _190  and  _193
REMARK   82  A    between atoms: _193  and  _194
REMARK   83  A    between atoms: _197  and  _199
REMARK   84  A    between atoms: _199  and  _200
REMARK   85  A    between atoms: _199  and  _202
REMARK   86  A    between atoms: _205  and  _207
REMARK   87  A    between atoms: _207  and  _208
REMARK   88  A    between atoms: _207  and  _210
REMARK   89  A    between atoms: _210  and  _211
REMARK   90  A    between atoms: _215  and  _216
REMARK   91  A    between atoms: _221  and  _223
REMARK   92  A    between atoms: _223  and  _224
REMARK   93  A    between atoms: _223  and  _226
REMARK   94  A    between atoms: _226  and  _227
REMARK   95  A    between atoms: _231  and  _232
REMARK   96  A    between atoms: _237  and  _239
REMARK   97  A    between atoms: _239  and  _240
REMARK   98  A    between atoms: _239  and  _242
REMARK   99  A    between atoms: _245  and  _247
REMARK  100  A    between atoms: _247  and  _248
REMARK  101  A    between atoms: _247  and  _250
REMARK  102  A    between atoms: _250  and  _251
REMARK  103  A    between atoms: _256  and  _258
REMARK  104  A    between atoms: _258  and  _259
REMARK  105  A    between atoms: _258  and  _261
REMARK  106  A    between atoms: _261  and  _262
REMARK  107  A    between atoms: _265  and  _267
REMARK  108  A    between atoms: _267  and  _268
REMARK  109  A    between atoms: _267  and  _270
REMARK  110  A    between atoms: _270  and  _271
REMARK  111  A    between atoms: _274  and  _276
REMARK  112  A    between atoms: _276  and  _277
REMARK  113  A    between atoms: _279  and  _281
REMARK  114  A    between atoms: _281  and  _282
REMARK  115  A    between atoms: _281  and  _284
REMARK  116  A    between atoms: _284  and  _285
REMARK  117  A    between atoms: _285  and  _286
REMARK  118  A    between atoms: _286  and  _287
REMARK  119  A    between atoms: _296  and  _298
REMARK  120  A    between atoms: _298  and  _299
REMARK  121  A    between atoms: _298  and  _301
REMARK  122  A    between atoms: _301  and  _302
REMARK  123  A    between atoms: _307  and  _309
REMARK  124  A    between atoms: _309  and  _310
REMARK  125  A    between atoms: _309  and  _312
REMARK  126  A    between atoms: _312  and  _313
REMARK  127  A    between atoms: _313  and  _314
REMARK  128  A    between atoms: _314  and  _315
REMARK  129  A    between atoms: _324  and  _326
REMARK  130  A    between atoms: _326  and  _327
REMARK  131  A    between atoms: _326  and  _329
REMARK  132  A    between atoms: _329  and  _330
REMARK  133  A    between atoms: _333  and  _335
REMARK  134  A    between atoms: _335  and  _336
REMARK  135  A    between atoms: _335  and  _338
REMARK  136  A    between atoms: _338  and  _339
REMARK  137  A    between atoms: _342  and  _344
REMARK  138  A    between atoms: _344  and  _345
REMARK  139  A    between atoms: _344  and  _347
REMARK  140  A    between atoms: _347  and  _348
REMARK  141  A    between atoms: _351  and  _353
REMARK  142  A    between atoms: _353  and  _354
REMARK  143  A    between atoms: _353  and  _356
REMARK  144  A    between atoms: _356  and  _357
REMARK  145  A    between atoms: _360  and  _362
REMARK  146  A    between atoms: _362  and  _363
REMARK  147  A    between atoms: _365  and  _367
REMARK  148  A    between atoms: _367  and  _368
REMARK  149  A    between atoms: _371  and  _373
REMARK  150  A    between atoms: _373  and  _374
REMARK  151  A    between atoms: _373  and  _376
REMARK  152  A    between atoms: _376  and  _377
REMARK  153  A    between atoms: _380  and  _382
REMARK  154  A    between atoms: _382  and  _383
REMARK  155  A    between atoms: _382  and  _385
REMARK  156  A    between atoms: _385  and  _386
REMARK  157  A    between atoms: _389  and  _391
REMARK  158  A    between atoms: _391  and  _392
REMARK  159  A    between atoms: _391  and  _394
REMARK  160  A    between atoms: _394  and  _395
REMARK  161  A    between atoms: _398  and  _400
REMARK  162  A    between atoms: _400  and  _401
REMARK  163  A    between atoms: _400  and  _403
REMARK  164  A    between atoms: _406  and  _408
REMARK  165  A    between atoms: _408  and  _409
REMARK  166  A    between atoms: _408  and  _411
REMARK  167  A    between atoms: _411  and  _412
REMARK  168  A    between atoms: _415  and  _417
REMARK  169  A    between atoms: _417  and  _418
REMARK  170  A    between atoms: _417  and  _420
REMARK  171  A    between atoms: _420  and  _421
REMARK  172  A    between atoms: _421  and  _422
REMARK  173  A    between atoms: _422  and  _423
REMARK  174  A    between atoms: _423  and  _424
REMARK  175  A    between atoms: _428  and  _430
REMARK  176  A    between atoms: _430  and  _431
REMARK  177  A    between atoms: _430  and  _433
REMARK  178  A    between atoms: _433  and  _434
REMARK  179  A    between atoms: _434  and  _435
REMARK  180  A    between atoms: _437  and  _439
REMARK  181  A    between atoms: _439  and  _440
REMARK  182  A    between atoms: _439  and  _442
REMARK  183  A    between atoms: _442  and  _443
REMARK  184  A    between atoms: _446  and  _448
REMARK  185  A    between atoms: _448  and  _449
REMARK  186  A    between atoms: _451  and  _453
REMARK  187  A    between atoms: _453  and  _454
REMARK  188  A    between atoms: _456  and  _458
REMARK  189  A    between atoms: _458  and  _459
REMARK  190  A    between atoms: _458  and  _461
REMARK  191  A    between atoms: _461  and  _462
REMARK  192  A    between atoms: _465  and  _467
REMARK  193  A    between atoms: _467  and  _468
REMARK  194  A    between atoms: _470  and  _472
REMARK  195  A    between atoms: _472  and  _473
REMARK  196  A    between atoms: _475  and  _477
REMARK  197  A    between atoms: _477  and  _478
REMARK  198  A    between atoms: _477  and  _480
REMARK  199  A    between atoms: _480  and  _481
REMARK  200  A    between atoms: _487  and  _489
REMARK  201  A    between atoms: _489  and  _490
REMARK  202  A    between atoms: _489  and  _492
REMARK  203  A    between atoms: _492  and  _493
REMARK  204  A    between atoms: _496  and  _498
REMARK  205  A    between atoms: _498  and  _499
REMARK  206  A    between atoms: _498  and  _501
REMARK  207  A    between atoms: _504  and  _506
REMARK  208  A    between atoms: _506  and  _507
REMARK  209  A    between atoms: _506  and  _509
REMARK  210  A    between atoms: _509  and  _510
REMARK  211  A    between atoms: _513  and  _515
REMARK  212  A    between atoms: _515  and  _516
REMARK  213  A    between atoms: _515  and  _518
REMARK  214  A    between atoms: _518  and  _519
REMARK  215  A    between atoms: _523  and  _524
REMARK  216  A    between atoms: _529  and  _531
REMARK  217  A    between atoms: _531  and  _532
REMARK  218  A    between atoms: _531  and  _534
REMARK  219  A    between atoms: _537  and  _539
REMARK  220  A    between atoms: _539  and  _540
REMARK  221  A    between atoms: _539  and  _542
REMARK  222  A    between atoms: _542  and  _543
REMARK  223  A    between atoms: _548  and  _550
REMARK  224  A    between atoms: _550  and  _551
REMARK  225  A    between atoms: _550  and  _553
REMARK  226  A    between atoms: _553  and  _554
REMARK  227  A    between atoms: _557  and  _559
REMARK  228  A    between atoms: _559  and  _560
REMARK  229  A    between atoms: _559  and  _562
REMARK  230  A    between atoms: _562  and  _563
REMARK  231  A    between atoms: _566  and  _568
REMARK  232  A    between atoms: _568  and  _569
REMARK  233  A    between atoms: _571  and  _573
REMARK  234  A    between atoms: _573  and  _574
REMARK  235  A    between atoms: _573  and  _576
REMARK  236  A    between atoms: _576  and  _577
REMARK  237  A    between atoms: _577  and  _578
REMARK  238  A    between atoms: _578  and  _579
REMARK  239  A    between atoms: _588  and  _590
REMARK  240  A    between atoms: _590  and  _591
REMARK  241  A    between atoms: _590  and  _593
REMARK  242  A    between atoms: _593  and  _594
REMARK                            x       y       z     vdW  Elec       q    Type
REMARK                         _______ _______ _______ _____ _____    ______ ____
ROOT
ATOM      1  O   HOH     1      23.515  28.134  26.156  0.00  0.00    +0.000 OA
ENDROOT
TORSDOF 0
