REMARK  Name = ../refined-set-2016/3dd8/3dd8_pocket.pdb
REMARK  158 active torsions:
REMARK  status: ('A' for Active; 'I' for Inactive)
REMARK    1  A    between atoms: _1  and  _3
REMARK    2  A    between atoms: _3  and  _4
REMARK    3  A    between atoms: _3  and  _6
REMARK    4  A    between atoms: _6  and  _7
REMARK    5  A    between atoms: _17  and  _19
REMARK    6  A    between atoms: _19  and  _20
REMARK    7  A    between atoms: _19  and  _22
REMARK    8  A    between atoms: _22  and  _23
REMARK    9  A    between atoms: _28  and  _29
REMARK   10  A    between atoms: _31  and  _33
REMARK   11  A    between atoms: _33  and  _34
REMARK   12  A    between atoms: _33  and  _36
REMARK   13  A    between atoms: _36  and  _37
REMARK   14  A    between atoms: _43  and  _45
REMARK   15  A    between atoms: _45  and  _46
REMARK   16  A    between atoms: _45  and  _48
REMARK   17  A    between atoms: _48  and  _49
REMARK   18  A    between atoms: _52  and  _53
REMARK   19  A    between atoms: _58  and  _60
REMARK   20  A    between atoms: _60  and  _61
REMARK   21  A    between atoms: _60  and  _63
REMARK   22  A    between atoms: _63  and  _64
REMARK   23  A    between atoms: _69  and  _71
REMARK   24  A    between atoms: _71  and  _72
REMARK   25  A    between atoms: _71  and  _74
REMARK   26  A    between atoms: _74  and  _75
REMARK   27  A    between atoms: _80  and  _82
REMARK   28  A    between atoms: _82  and  _83
REMARK   29  A    between atoms: _82  and  _85
REMARK   30  A    between atoms: _85  and  _86
REMARK   31  A    between atoms: _91  and  _93
REMARK   32  A    between atoms: _93  and  _94
REMARK   33  A    between atoms: _93  and  _96
REMARK   34  A    between atoms: _96  and  _97
REMARK   35  A    between atoms: _100  and  _102
REMARK   36  A    between atoms: _102  and  _103
REMARK   37  A    between atoms: _102  and  _105
REMARK   38  A    between atoms: _105  and  _106
REMARK   39  A    between atoms: _106  and  _107
REMARK   40  A    between atoms: _112  and  _114
REMARK   41  A    between atoms: _114  and  _115
REMARK   42  A    between atoms: _114  and  _117
REMARK   43  A    between atoms: _117  and  _118
REMARK   44  A    between atoms: _124  and  _126
REMARK   45  A    between atoms: _137  and  _140
REMARK   46  A    between atoms: _140  and  _141
REMARK   47  A    between atoms: _149  and  _150
REMARK   48  A    between atoms: _158  and  _160
REMARK   49  A    between atoms: _160  and  _161
REMARK   50  A    between atoms: _160  and  _163
REMARK   51  A    between atoms: _163  and  _164
REMARK   52  A    between atoms: _164  and  _165
REMARK   53  A    between atoms: _168  and  _170
REMARK   54  A    between atoms: _170  and  _171
REMARK   55  A    between atoms: _170  and  _173
REMARK   56  A    between atoms: _173  and  _174
REMARK   57  A    between atoms: _179  and  _181
REMARK   58  A    between atoms: _181  and  _182
REMARK   59  A    between atoms: _181  and  _184
REMARK   60  A    between atoms: _184  and  _185
REMARK   61  A    between atoms: _185  and  _186
REMARK   62  A    between atoms: _189  and  _191
REMARK   63  A    between atoms: _191  and  _192
REMARK   64  A    between atoms: _191  and  _194
REMARK   65  A    between atoms: _194  and  _195
REMARK   66  A    between atoms: _198  and  _200
REMARK   67  A    between atoms: _200  and  _201
REMARK   68  A    between atoms: _200  and  _203
REMARK   69  A    between atoms: _203  and  _204
REMARK   70  A    between atoms: _205  and  ZN_443
REMARK   71  A    between atoms: _209  and  _211
REMARK   72  A    between atoms: _211  and  _212
REMARK   73  A    between atoms: _211  and  _214
REMARK   74  A    between atoms: _214  and  _215
REMARK   75  A    between atoms: _218  and  _220
REMARK   76  A    between atoms: _220  and  _221
REMARK   77  A    between atoms: _220  and  _223
REMARK   78  A    between atoms: _226  and  _228
REMARK   79  A    between atoms: _228  and  _229
REMARK   80  A    between atoms: _228  and  _231
REMARK   81  A    between atoms: _231  and  _232
REMARK   82  A    between atoms: _237  and  _239
REMARK   83  A    between atoms: _239  and  _240
REMARK   84  A    between atoms: _239  and  _242
REMARK   85  A    between atoms: _242  and  _243
REMARK   86  A    between atoms: _249  and  _251
REMARK   87  A    between atoms: _251  and  _252
REMARK   88  A    between atoms: _254  and  _256
REMARK   89  A    between atoms: _256  and  _257
REMARK   90  A    between atoms: _260  and  _262
REMARK   91  A    between atoms: _262  and  _263
REMARK   92  A    between atoms: _262  and  _265
REMARK   93  A    between atoms: _268  and  _270
REMARK   94  A    between atoms: _270  and  _271
REMARK   95  A    between atoms: _270  and  _273
REMARK   96  A    between atoms: _273  and  _274
REMARK   97  A    between atoms: _274  and  _275
REMARK   98  A    between atoms: _280  and  _282
REMARK   99  A    between atoms: _282  and  _283
REMARK  100  A    between atoms: _282  and  _285
REMARK  101  A    between atoms: _285  and  _286
REMARK  102  A    between atoms: _289  and  _291
REMARK  103  A    between atoms: _291  and  _292
REMARK  104  A    between atoms: _295  and  _297
REMARK  105  A    between atoms: _297  and  _298
REMARK  106  A    between atoms: _297  and  _300
REMARK  107  A    between atoms: _303  and  _305
REMARK  108  A    between atoms: _305  and  _306
REMARK  109  A    between atoms: _305  and  _308
REMARK  110  A    between atoms: _308  and  _309
REMARK  111  A    between atoms: _312  and  _314
REMARK  112  A    between atoms: _314  and  _315
REMARK  113  A    between atoms: _317  and  _319
REMARK  114  A    between atoms: _319  and  _320
REMARK  115  A    between atoms: _319  and  _322
REMARK  116  A    between atoms: _322  and  _323
REMARK  117  A    between atoms: _325  and  _327
REMARK  118  A    between atoms: _327  and  _328
REMARK  119  A    between atoms: _327  and  _330
REMARK  120  A    between atoms: _330  and  _331
REMARK  121  A    between atoms: _334  and  _336
REMARK  122  A    between atoms: _336  and  _337
REMARK  123  A    between atoms: _336  and  _339
REMARK  124  A    between atoms: _339  and  _340
REMARK  125  A    between atoms: _343  and  _345
REMARK  126  A    between atoms: _345  and  _346
REMARK  127  A    between atoms: _345  and  _348
REMARK  128  A    between atoms: _348  and  _349
REMARK  129  A    between atoms: _353  and  _354
REMARK  130  A    between atoms: _360  and  _361
REMARK  131  A    between atoms: _366  and  _368
REMARK  132  A    between atoms: _368  and  _369
REMARK  133  A    between atoms: _368  and  _371
REMARK  134  A    between atoms: _371  and  _372
REMARK  135  A    between atoms: _375  and  _377
REMARK  136  A    between atoms: _377  and  _378
REMARK  137  A    between atoms: _377  and  _380
REMARK  138  A    between atoms: _380  and  _381
REMARK  139  A    between atoms: _384  and  _386
REMARK  140  A    between atoms: _386  and  _387
REMARK  141  A    between atoms: _386  and  _389
REMARK  142  A    between atoms: _391  and  _393
REMARK  143  A    between atoms: _393  and  _394
REMARK  144  A    between atoms: _393  and  _396
REMARK  145  A    between atoms: _399  and  _401
REMARK  146  A    between atoms: _401  and  _402
REMARK  147  A    between atoms: _401  and  _404
REMARK  148  A    between atoms: _404  and  _405
REMARK  149  A    between atoms: _415  and  _417
REMARK  150  A    between atoms: _417  and  _418
REMARK  151  A    between atoms: _417  and  _420
REMARK  152  A    between atoms: _420  and  _421
REMARK  153  A    between atoms: _426  and  _428
REMARK  154  A    between atoms: _428  and  _429
REMARK  155  A    between atoms: _428  and  _431
REMARK  156  A    between atoms: _431  and  _432
REMARK  157  A    between atoms: _432  and  _433
REMARK  158  A    between atoms: _433  and  _434
REMARK                            x       y       z     vdW  Elec       q    Type
REMARK                         _______ _______ _______ _____ _____    ______ ____
ROOT
ATOM      1  CG  TRP A   1       5.694   0.144  11.984  0.00  0.00    -0.002 A 
ATOM      2  CD2 TRP A   1       4.370  -0.396  11.980  0.00  0.00    +0.013 A 
ATOM      3  CE3 TRP A   1       3.836  -1.665  12.249  0.00  0.00    +0.001 A 
ATOM      4  CZ3 TRP A   1       2.467  -1.848  12.134  0.00  0.00    +0.000 A 
ATOM      5  CH2 TRP A   1       1.621  -0.789  11.763  0.00  0.00    +0.001 A 
ATOM      6  CZ2 TRP A   1       2.117   0.459  11.489  0.00  0.00    +0.017 A 
ATOM      7  CE2 TRP A   1       3.499   0.642  11.596  0.00  0.00    +0.056 A 
ATOM      8  NE1 TRP A   1       4.262   1.762  11.381  0.00  0.00    -0.352 N 
ATOM      9  HE1 TRP A   1       3.903   2.691  11.083  0.00  0.00    +0.166 HD
ATOM     10  CD1 TRP A   1       5.575   1.455  11.623  0.00  0.00    +0.068 A 
ENDROOT
BRANCH   1  11
ATOM     11  CB  TRP A   1       6.952  -0.586  12.317  0.00  0.00    +0.053 C 
BRANCH  11  12
ATOM     12  CA  TRP A   1       7.623  -1.277  11.113  0.00  0.00    +0.137 C 
BRANCH  12  13
ATOM     13  N   TRP A   1       8.304  -0.311  10.252  0.00  0.00    -0.239 NA
ATOM     14  H   TRP A   1       8.081   0.701  10.338  0.00  0.00    +0.142 HD
ENDBRANCH  12  13
BRANCH  12  15
ATOM     15  C   TRP A   1       6.637  -2.154  10.352  0.00  0.00    +0.224 C 
ATOM     16  O   TRP A   1       6.035  -1.723   9.357  0.00  0.00    -0.287 OA
ENDBRANCH  12  15
ENDBRANCH  11  12
ENDBRANCH   1  11
TORSDOF 4
REMARK  Name = ../refined-set-2016/3dd8/3dd8_pocket.pdb
REMARK  158 active torsions:
REMARK  status: ('A' for Active; 'I' for Inactive)
REMARK    1  A    between atoms: _1  and  _3
REMARK    2  A    between atoms: _3  and  _4
REMARK    3  A    between atoms: _3  and  _6
REMARK    4  A    between atoms: _6  and  _7
REMARK    5  A    between atoms: _17  and  _19
REMARK    6  A    between atoms: _19  and  _20
REMARK    7  A    between atoms: _19  and  _22
REMARK    8  A    between atoms: _22  and  _23
REMARK    9  A    between atoms: _28  and  _29
REMARK   10  A    between atoms: _31  and  _33
REMARK   11  A    between atoms: _33  and  _34
REMARK   12  A    between atoms: _33  and  _36
REMARK   13  A    between atoms: _36  and  _37
REMARK   14  A    between atoms: _43  and  _45
REMARK   15  A    between atoms: _45  and  _46
REMARK   16  A    between atoms: _45  and  _48
REMARK   17  A    between atoms: _48  and  _49
REMARK   18  A    between atoms: _52  and  _53
REMARK   19  A    between atoms: _58  and  _60
REMARK   20  A    between atoms: _60  and  _61
REMARK   21  A    between atoms: _60  and  _63
REMARK   22  A    between atoms: _63  and  _64
REMARK   23  A    between atoms: _69  and  _71
REMARK   24  A    between atoms: _71  and  _72
REMARK   25  A    between atoms: _71  and  _74
REMARK   26  A    between atoms: _74  and  _75
REMARK   27  A    between atoms: _80  and  _82
REMARK   28  A    between atoms: _82  and  _83
REMARK   29  A    between atoms: _82  and  _85
REMARK   30  A    between atoms: _85  and  _86
REMARK   31  A    between atoms: _91  and  _93
REMARK   32  A    between atoms: _93  and  _94
REMARK   33  A    between atoms: _93  and  _96
REMARK   34  A    between atoms: _96  and  _97
REMARK   35  A    between atoms: _100  and  _102
REMARK   36  A    between atoms: _102  and  _103
REMARK   37  A    between atoms: _102  and  _105
REMARK   38  A    between atoms: _105  and  _106
REMARK   39  A    between atoms: _106  and  _107
REMARK   40  A    between atoms: _112  and  _114
REMARK   41  A    between atoms: _114  and  _115
REMARK   42  A    between atoms: _114  and  _117
REMARK   43  A    between atoms: _117  and  _118
REMARK   44  A    between atoms: _124  and  _126
REMARK   45  A    between atoms: _137  and  _140
REMARK   46  A    between atoms: _140  and  _141
REMARK   47  A    between atoms: _149  and  _150
REMARK   48  A    between atoms: _158  and  _160
REMARK   49  A    between atoms: _160  and  _161
REMARK   50  A    between atoms: _160  and  _163
REMARK   51  A    between atoms: _163  and  _164
REMARK   52  A    between atoms: _164  and  _165
REMARK   53  A    between atoms: _168  and  _170
REMARK   54  A    between atoms: _170  and  _171
REMARK   55  A    between atoms: _170  and  _173
REMARK   56  A    between atoms: _173  and  _174
REMARK   57  A    between atoms: _179  and  _181
REMARK   58  A    between atoms: _181  and  _182
REMARK   59  A    between atoms: _181  and  _184
REMARK   60  A    between atoms: _184  and  _185
REMARK   61  A    between atoms: _185  and  _186
REMARK   62  A    between atoms: _189  and  _191
REMARK   63  A    between atoms: _191  and  _192
REMARK   64  A    between atoms: _191  and  _194
REMARK   65  A    between atoms: _194  and  _195
REMARK   66  A    between atoms: _198  and  _200
REMARK   67  A    between atoms: _200  and  _201
REMARK   68  A    between atoms: _200  and  _203
REMARK   69  A    between atoms: _203  and  _204
REMARK   70  A    between atoms: _205  and  ZN_443
REMARK   71  A    between atoms: _209  and  _211
REMARK   72  A    between atoms: _211  and  _212
REMARK   73  A    between atoms: _211  and  _214
REMARK   74  A    between atoms: _214  and  _215
REMARK   75  A    between atoms: _218  and  _220
REMARK   76  A    between atoms: _220  and  _221
REMARK   77  A    between atoms: _220  and  _223
REMARK   78  A    between atoms: _226  and  _228
REMARK   79  A    between atoms: _228  and  _229
REMARK   80  A    between atoms: _228  and  _231
REMARK   81  A    between atoms: _231  and  _232
REMARK   82  A    between atoms: _237  and  _239
REMARK   83  A    between atoms: _239  and  _240
REMARK   84  A    between atoms: _239  and  _242
REMARK   85  A    between atoms: _242  and  _243
REMARK   86  A    between atoms: _249  and  _251
REMARK   87  A    between atoms: _251  and  _252
REMARK   88  A    between atoms: _254  and  _256
REMARK   89  A    between atoms: _256  and  _257
REMARK   90  A    between atoms: _260  and  _262
REMARK   91  A    between atoms: _262  and  _263
REMARK   92  A    between atoms: _262  and  _265
REMARK   93  A    between atoms: _268  and  _270
REMARK   94  A    between atoms: _270  and  _271
REMARK   95  A    between atoms: _270  and  _273
REMARK   96  A    between atoms: _273  and  _274
REMARK   97  A    between atoms: _274  and  _275
REMARK   98  A    between atoms: _280  and  _282
REMARK   99  A    between atoms: _282  and  _283
REMARK  100  A    between atoms: _282  and  _285
REMARK  101  A    between atoms: _285  and  _286
REMARK  102  A    between atoms: _289  and  _291
REMARK  103  A    between atoms: _291  and  _292
REMARK  104  A    between atoms: _295  and  _297
REMARK  105  A    between atoms: _297  and  _298
REMARK  106  A    between atoms: _297  and  _300
REMARK  107  A    between atoms: _303  and  _305
REMARK  108  A    between atoms: _305  and  _306
REMARK  109  A    between atoms: _305  and  _308
REMARK  110  A    between atoms: _308  and  _309
REMARK  111  A    between atoms: _312  and  _314
REMARK  112  A    between atoms: _314  and  _315
REMARK  113  A    between atoms: _317  and  _319
REMARK  114  A    between atoms: _319  and  _320
REMARK  115  A    between atoms: _319  and  _322
REMARK  116  A    between atoms: _322  and  _323
REMARK  117  A    between atoms: _325  and  _327
REMARK  118  A    between atoms: _327  and  _328
REMARK  119  A    between atoms: _327  and  _330
REMARK  120  A    between atoms: _330  and  _331
REMARK  121  A    between atoms: _334  and  _336
REMARK  122  A    between atoms: _336  and  _337
REMARK  123  A    between atoms: _336  and  _339
REMARK  124  A    between atoms: _339  and  _340
REMARK  125  A    between atoms: _343  and  _345
REMARK  126  A    between atoms: _345  and  _346
REMARK  127  A    between atoms: _345  and  _348
REMARK  128  A    between atoms: _348  and  _349
REMARK  129  A    between atoms: _353  and  _354
REMARK  130  A    between atoms: _360  and  _361
REMARK  131  A    between atoms: _366  and  _368
REMARK  132  A    between atoms: _368  and  _369
REMARK  133  A    between atoms: _368  and  _371
REMARK  134  A    between atoms: _371  and  _372
REMARK  135  A    between atoms: _375  and  _377
REMARK  136  A    between atoms: _377  and  _378
REMARK  137  A    between atoms: _377  and  _380
REMARK  138  A    between atoms: _380  and  _381
REMARK  139  A    between atoms: _384  and  _386
REMARK  140  A    between atoms: _386  and  _387
REMARK  141  A    between atoms: _386  and  _389
REMARK  142  A    between atoms: _391  and  _393
REMARK  143  A    between atoms: _393  and  _394
REMARK  144  A    between atoms: _393  and  _396
REMARK  145  A    between atoms: _399  and  _401
REMARK  146  A    between atoms: _401  and  _402
REMARK  147  A    between atoms: _401  and  _404
REMARK  148  A    between atoms: _404  and  _405
REMARK  149  A    between atoms: _415  and  _417
REMARK  150  A    between atoms: _417  and  _418
REMARK  151  A    between atoms: _417  and  _420
REMARK  152  A    between atoms: _420  and  _421
REMARK  153  A    between atoms: _426  and  _428
REMARK  154  A    between atoms: _428  and  _429
REMARK  155  A    between atoms: _428  and  _431
REMARK  156  A    between atoms: _431  and  _432
REMARK  157  A    between atoms: _432  and  _433
REMARK  158  A    between atoms: _433  and  _434
REMARK                            x       y       z     vdW  Elec       q    Type
REMARK                         _______ _______ _______ _____ _____    ______ ____
ROOT
ATOM      1  CG  TYR A   1       1.944  -6.900  11.930  0.00  0.00    -0.020 A 
ATOM      2  CD2 TYR A   1       1.586  -6.824  13.277  0.00  0.00    -0.001 A 
ATOM      3  CE2 TYR A   1       0.736  -5.813  13.739  0.00  0.00    +0.036 A 
ATOM      4  CZ  TYR A   1       0.240  -4.875  12.844  0.00  0.00    +0.134 A 
ATOM      5  CE1 TYR A   1       0.581  -4.934  11.506  0.00  0.00    +0.036 A 
ATOM      6  CD1 TYR A   1       1.430  -5.946  11.053  0.00  0.00    -0.001 A 
ENDROOT
BRANCH   4   7
ATOM      7  OH  TYR A   1      -0.601  -3.885  13.291  0.00  0.00    -0.506 OA
ATOM      8  HH  TYR A   1      -0.860  -3.306  12.531  0.00  0.00    +0.292 HD
ENDBRANCH   4   7
BRANCH   1   9
ATOM      9  CB  TYR A   1       2.864  -7.987  11.435  0.00  0.00    +0.051 C 
BRANCH   9  10
ATOM     10  CA  TYR A   1       4.349  -7.675  11.664  0.00  0.00    +0.137 C 
BRANCH  10  11
ATOM     11  N   TYR A   1       4.796  -6.574  10.794  0.00  0.00    -0.239 NA
ATOM     12  H   TYR A   1       4.897  -6.746   9.773  0.00  0.00    +0.142 HD
ENDBRANCH  10  11
BRANCH  10  13
ATOM     13  C   TYR A   1       5.185  -8.943  11.516  0.00  0.00    +0.224 C 
ATOM     14  O   TYR A   1       4.893  -9.968  12.153  0.00  0.00    -0.287 OA
ENDBRANCH  10  13
ENDBRANCH   9  10
ENDBRANCH   1   9
TORSDOF 5
REMARK  Name = ../refined-set-2016/3dd8/3dd8_pocket.pdb
REMARK  158 active torsions:
REMARK  status: ('A' for Active; 'I' for Inactive)
REMARK    1  A    between atoms: _1  and  _3
REMARK    2  A    between atoms: _3  and  _4
REMARK    3  A    between atoms: _3  and  _6
REMARK    4  A    between atoms: _6  and  _7
REMARK    5  A    between atoms: _17  and  _19
REMARK    6  A    between atoms: _19  and  _20
REMARK    7  A    between atoms: _19  and  _22
REMARK    8  A    between atoms: _22  and  _23
REMARK    9  A    between atoms: _28  and  _29
REMARK   10  A    between atoms: _31  and  _33
REMARK   11  A    between atoms: _33  and  _34
REMARK   12  A    between atoms: _33  and  _36
REMARK   13  A    between atoms: _36  and  _37
REMARK   14  A    between atoms: _43  and  _45
REMARK   15  A    between atoms: _45  and  _46
REMARK   16  A    between atoms: _45  and  _48
REMARK   17  A    between atoms: _48  and  _49
REMARK   18  A    between atoms: _52  and  _53
REMARK   19  A    between atoms: _58  and  _60
REMARK   20  A    between atoms: _60  and  _61
REMARK   21  A    between atoms: _60  and  _63
REMARK   22  A    between atoms: _63  and  _64
REMARK   23  A    between atoms: _69  and  _71
REMARK   24  A    between atoms: _71  and  _72
REMARK   25  A    between atoms: _71  and  _74
REMARK   26  A    between atoms: _74  and  _75
REMARK   27  A    between atoms: _80  and  _82
REMARK   28  A    between atoms: _82  and  _83
REMARK   29  A    between atoms: _82  and  _85
REMARK   30  A    between atoms: _85  and  _86
REMARK   31  A    between atoms: _91  and  _93
REMARK   32  A    between atoms: _93  and  _94
REMARK   33  A    between atoms: _93  and  _96
REMARK   34  A    between atoms: _96  and  _97
REMARK   35  A    between atoms: _100  and  _102
REMARK   36  A    between atoms: _102  and  _103
REMARK   37  A    between atoms: _102  and  _105
REMARK   38  A    between atoms: _105  and  _106
REMARK   39  A    between atoms: _106  and  _107
REMARK   40  A    between atoms: _112  and  _114
REMARK   41  A    between atoms: _114  and  _115
REMARK   42  A    between atoms: _114  and  _117
REMARK   43  A    between atoms: _117  and  _118
REMARK   44  A    between atoms: _124  and  _126
REMARK   45  A    between atoms: _137  and  _140
REMARK   46  A    between atoms: _140  and  _141
REMARK   47  A    between atoms: _149  and  _150
REMARK   48  A    between atoms: _158  and  _160
REMARK   49  A    between atoms: _160  and  _161
REMARK   50  A    between atoms: _160  and  _163
REMARK   51  A    between atoms: _163  and  _164
REMARK   52  A    between atoms: _164  and  _165
REMARK   53  A    between atoms: _168  and  _170
REMARK   54  A    between atoms: _170  and  _171
REMARK   55  A    between atoms: _170  and  _173
REMARK   56  A    between atoms: _173  and  _174
REMARK   57  A    between atoms: _179  and  _181
REMARK   58  A    between atoms: _181  and  _182
REMARK   59  A    between atoms: _181  and  _184
REMARK   60  A    between atoms: _184  and  _185
REMARK   61  A    between atoms: _185  and  _186
REMARK   62  A    between atoms: _189  and  _191
REMARK   63  A    between atoms: _191  and  _192
REMARK   64  A    between atoms: _191  and  _194
REMARK   65  A    between atoms: _194  and  _195
REMARK   66  A    between atoms: _198  and  _200
REMARK   67  A    between atoms: _200  and  _201
REMARK   68  A    between atoms: _200  and  _203
REMARK   69  A    between atoms: _203  and  _204
REMARK   70  A    between atoms: _205  and  ZN_443
REMARK   71  A    between atoms: _209  and  _211
REMARK   72  A    between atoms: _211  and  _212
REMARK   73  A    between atoms: _211  and  _214
REMARK   74  A    between atoms: _214  and  _215
REMARK   75  A    between atoms: _218  and  _220
REMARK   76  A    between atoms: _220  and  _221
REMARK   77  A    between atoms: _220  and  _223
REMARK   78  A    between atoms: _226  and  _228
REMARK   79  A    between atoms: _228  and  _229
REMARK   80  A    between atoms: _228  and  _231
REMARK   81  A    between atoms: _231  and  _232
REMARK   82  A    between atoms: _237  and  _239
REMARK   83  A    between atoms: _239  and  _240
REMARK   84  A    between atoms: _239  and  _242
REMARK   85  A    between atoms: _242  and  _243
REMARK   86  A    between atoms: _249  and  _251
REMARK   87  A    between atoms: _251  and  _252
REMARK   88  A    between atoms: _254  and  _256
REMARK   89  A    between atoms: _256  and  _257
REMARK   90  A    between atoms: _260  and  _262
REMARK   91  A    between atoms: _262  and  _263
REMARK   92  A    between atoms: _262  and  _265
REMARK   93  A    between atoms: _268  and  _270
REMARK   94  A    between atoms: _270  and  _271
REMARK   95  A    between atoms: _270  and  _273
REMARK   96  A    between atoms: _273  and  _274
REMARK   97  A    between atoms: _274  and  _275
REMARK   98  A    between atoms: _280  and  _282
REMARK   99  A    between atoms: _282  and  _283
REMARK  100  A    between atoms: _282  and  _285
REMARK  101  A    between atoms: _285  and  _286
REMARK  102  A    between atoms: _289  and  _291
REMARK  103  A    between atoms: _291  and  _292
REMARK  104  A    between atoms: _295  and  _297
REMARK  105  A    between atoms: _297  and  _298
REMARK  106  A    between atoms: _297  and  _300
REMARK  107  A    between atoms: _303  and  _305
REMARK  108  A    between atoms: _305  and  _306
REMARK  109  A    between atoms: _305  and  _308
REMARK  110  A    between atoms: _308  and  _309
REMARK  111  A    between atoms: _312  and  _314
REMARK  112  A    between atoms: _314  and  _315
REMARK  113  A    between atoms: _317  and  _319
REMARK  114  A    between atoms: _319  and  _320
REMARK  115  A    between atoms: _319  and  _322
REMARK  116  A    between atoms: _322  and  _323
REMARK  117  A    between atoms: _325  and  _327
REMARK  118  A    between atoms: _327  and  _328
REMARK  119  A    between atoms: _327  and  _330
REMARK  120  A    between atoms: _330  and  _331
REMARK  121  A    between atoms: _334  and  _336
REMARK  122  A    between atoms: _336  and  _337
REMARK  123  A    between atoms: _336  and  _339
REMARK  124  A    between atoms: _339  and  _340
REMARK  125  A    between atoms: _343  and  _345
REMARK  126  A    between atoms: _345  and  _346
REMARK  127  A    between atoms: _345  and  _348
REMARK  128  A    between atoms: _348  and  _349
REMARK  129  A    between atoms: _353  and  _354
REMARK  130  A    between atoms: _360  and  _361
REMARK  131  A    between atoms: _366  and  _368
REMARK  132  A    between atoms: _368  and  _369
REMARK  133  A    between atoms: _368  and  _371
REMARK  134  A    between atoms: _371  and  _372
REMARK  135  A    between atoms: _375  and  _377
REMARK  136  A    between atoms: _377  and  _378
REMARK  137  A    between atoms: _377  and  _380
REMARK  138  A    between atoms: _380  and  _381
REMARK  139  A    between atoms: _384  and  _386
REMARK  140  A    between atoms: _386  and  _387
REMARK  141  A    between atoms: _386  and  _389
REMARK  142  A    between atoms: _391  and  _393
REMARK  143  A    between atoms: _393  and  _394
REMARK  144  A    between atoms: _393  and  _396
REMARK  145  A    between atoms: _399  and  _401
REMARK  146  A    between atoms: _401  and  _402
REMARK  147  A    between atoms: _401  and  _404
REMARK  148  A    between atoms: _404  and  _405
REMARK  149  A    between atoms: _415  and  _417
REMARK  150  A    between atoms: _417  and  _418
REMARK  151  A    between atoms: _417  and  _420
REMARK  152  A    between atoms: _420  and  _421
REMARK  153  A    between atoms: _426  and  _428
REMARK  154  A    between atoms: _428  and  _429
REMARK  155  A    between atoms: _428  and  _431
REMARK  156  A    between atoms: _431  and  _432
REMARK  157  A    between atoms: _432  and  _433
REMARK  158  A    between atoms: _433  and  _434
REMARK                            x       y       z     vdW  Elec       q    Type
REMARK                         _______ _______ _______ _____ _____    ______ ____
ROOT
ATOM      1  CB  PHE A   1       7.449   3.535  19.121  0.00  0.00    +0.051 C 
ENDROOT
BRANCH   1   2
ATOM      2  CG  PHE A   1       7.374   3.963  17.674  0.00  0.00    -0.020 A 
ATOM      3  CD2 PHE A   1       7.049   5.277  17.339  0.00  0.00    -0.004 A 
ATOM      4  CE2 PHE A   1       6.999   5.681  15.998  0.00  0.00    -0.000 A 
ATOM      5  CZ  PHE A   1       7.274   4.765  14.982  0.00  0.00    -0.000 A 
ATOM      6  CE1 PHE A   1       7.617   3.450  15.301  0.00  0.00    -0.000 A 
ATOM      7  CD1 PHE A   1       7.666   3.059  16.650  0.00  0.00    -0.004 A 
ENDBRANCH   1   2
BRANCH   1   8
ATOM      8  CA  PHE A   1       8.799   3.857  19.789  0.00  0.00    +0.137 C 
BRANCH   8   9
ATOM      9  N   PHE A   1       9.897   3.341  18.971  0.00  0.00    -0.239 NA
ATOM     10  H   PHE A   1      10.048   2.313  18.928  0.00  0.00    +0.142 HD
ENDBRANCH   8   9
BRANCH   8  11
ATOM     11  C   PHE A   1       8.878   3.279  21.199  0.00  0.00    +0.224 C 
ATOM     12  O   PHE A   1       8.193   2.306  21.496  0.00  0.00    -0.287 OA
ENDBRANCH   8  11
ENDBRANCH   1   8
TORSDOF 4
REMARK  Name = ../refined-set-2016/3dd8/3dd8_pocket.pdb
REMARK  158 active torsions:
REMARK  status: ('A' for Active; 'I' for Inactive)
REMARK    1  A    between atoms: _1  and  _3
REMARK    2  A    between atoms: _3  and  _4
REMARK    3  A    between atoms: _3  and  _6
REMARK    4  A    between atoms: _6  and  _7
REMARK    5  A    between atoms: _17  and  _19
REMARK    6  A    between atoms: _19  and  _20
REMARK    7  A    between atoms: _19  and  _22
REMARK    8  A    between atoms: _22  and  _23
REMARK    9  A    between atoms: _28  and  _29
REMARK   10  A    between atoms: _31  and  _33
REMARK   11  A    between atoms: _33  and  _34
REMARK   12  A    between atoms: _33  and  _36
REMARK   13  A    between atoms: _36  and  _37
REMARK   14  A    between atoms: _43  and  _45
REMARK   15  A    between atoms: _45  and  _46
REMARK   16  A    between atoms: _45  and  _48
REMARK   17  A    between atoms: _48  and  _49
REMARK   18  A    between atoms: _52  and  _53
REMARK   19  A    between atoms: _58  and  _60
REMARK   20  A    between atoms: _60  and  _61
REMARK   21  A    between atoms: _60  and  _63
REMARK   22  A    between atoms: _63  and  _64
REMARK   23  A    between atoms: _69  and  _71
REMARK   24  A    between atoms: _71  and  _72
REMARK   25  A    between atoms: _71  and  _74
REMARK   26  A    between atoms: _74  and  _75
REMARK   27  A    between atoms: _80  and  _82
REMARK   28  A    between atoms: _82  and  _83
REMARK   29  A    between atoms: _82  and  _85
REMARK   30  A    between atoms: _85  and  _86
REMARK   31  A    between atoms: _91  and  _93
REMARK   32  A    between atoms: _93  and  _94
REMARK   33  A    between atoms: _93  and  _96
REMARK   34  A    between atoms: _96  and  _97
REMARK   35  A    between atoms: _100  and  _102
REMARK   36  A    between atoms: _102  and  _103
REMARK   37  A    between atoms: _102  and  _105
REMARK   38  A    between atoms: _105  and  _106
REMARK   39  A    between atoms: _106  and  _107
REMARK   40  A    between atoms: _112  and  _114
REMARK   41  A    between atoms: _114  and  _115
REMARK   42  A    between atoms: _114  and  _117
REMARK   43  A    between atoms: _117  and  _118
REMARK   44  A    between atoms: _124  and  _126
REMARK   45  A    between atoms: _137  and  _140
REMARK   46  A    between atoms: _140  and  _141
REMARK   47  A    between atoms: _149  and  _150
REMARK   48  A    between atoms: _158  and  _160
REMARK   49  A    between atoms: _160  and  _161
REMARK   50  A    between atoms: _160  and  _163
REMARK   51  A    between atoms: _163  and  _164
REMARK   52  A    between atoms: _164  and  _165
REMARK   53  A    between atoms: _168  and  _170
REMARK   54  A    between atoms: _170  and  _171
REMARK   55  A    between atoms: _170  and  _173
REMARK   56  A    between atoms: _173  and  _174
REMARK   57  A    between atoms: _179  and  _181
REMARK   58  A    between atoms: _181  and  _182
REMARK   59  A    between atoms: _181  and  _184
REMARK   60  A    between atoms: _184  and  _185
REMARK   61  A    between atoms: _185  and  _186
REMARK   62  A    between atoms: _189  and  _191
REMARK   63  A    between atoms: _191  and  _192
REMARK   64  A    between atoms: _191  and  _194
REMARK   65  A    between atoms: _194  and  _195
REMARK   66  A    between atoms: _198  and  _200
REMARK   67  A    between atoms: _200  and  _201
REMARK   68  A    between atoms: _200  and  _203
REMARK   69  A    between atoms: _203  and  _204
REMARK   70  A    between atoms: _205  and  ZN_443
REMARK   71  A    between atoms: _209  and  _211
REMARK   72  A    between atoms: _211  and  _212
REMARK   73  A    between atoms: _211  and  _214
REMARK   74  A    between atoms: _214  and  _215
REMARK   75  A    between atoms: _218  and  _220
REMARK   76  A    between atoms: _220  and  _221
REMARK   77  A    between atoms: _220  and  _223
REMARK   78  A    between atoms: _226  and  _228
REMARK   79  A    between atoms: _228  and  _229
REMARK   80  A    between atoms: _228  and  _231
REMARK   81  A    between atoms: _231  and  _232
REMARK   82  A    between atoms: _237  and  _239
REMARK   83  A    between atoms: _239  and  _240
REMARK   84  A    between atoms: _239  and  _242
REMARK   85  A    between atoms: _242  and  _243
REMARK   86  A    between atoms: _249  and  _251
REMARK   87  A    between atoms: _251  and  _252
REMARK   88  A    between atoms: _254  and  _256
REMARK   89  A    between atoms: _256  and  _257
REMARK   90  A    between atoms: _260  and  _262
REMARK   91  A    between atoms: _262  and  _263
REMARK   92  A    between atoms: _262  and  _265
REMARK   93  A    between atoms: _268  and  _270
REMARK   94  A    between atoms: _270  and  _271
REMARK   95  A    between atoms: _270  and  _273
REMARK   96  A    between atoms: _273  and  _274
REMARK   97  A    between atoms: _274  and  _275
REMARK   98  A    between atoms: _280  and  _282
REMARK   99  A    between atoms: _282  and  _283
REMARK  100  A    between atoms: _282  and  _285
REMARK  101  A    between atoms: _285  and  _286
REMARK  102  A    between atoms: _289  and  _291
REMARK  103  A    between atoms: _291  and  _292
REMARK  104  A    between atoms: _295  and  _297
REMARK  105  A    between atoms: _297  and  _298
REMARK  106  A    between atoms: _297  and  _300
REMARK  107  A    between atoms: _303  and  _305
REMARK  108  A    between atoms: _305  and  _306
REMARK  109  A    between atoms: _305  and  _308
REMARK  110  A    between atoms: _308  and  _309
REMARK  111  A    between atoms: _312  and  _314
REMARK  112  A    between atoms: _314  and  _315
REMARK  113  A    between atoms: _317  and  _319
REMARK  114  A    between atoms: _319  and  _320
REMARK  115  A    between atoms: _319  and  _322
REMARK  116  A    between atoms: _322  and  _323
REMARK  117  A    between atoms: _325  and  _327
REMARK  118  A    between atoms: _327  and  _328
REMARK  119  A    between atoms: _327  and  _330
REMARK  120  A    between atoms: _330  and  _331
REMARK  121  A    between atoms: _334  and  _336
REMARK  122  A    between atoms: _336  and  _337
REMARK  123  A    between atoms: _336  and  _339
REMARK  124  A    between atoms: _339  and  _340
REMARK  125  A    between atoms: _343  and  _345
REMARK  126  A    between atoms: _345  and  _346
REMARK  127  A    between atoms: _345  and  _348
REMARK  128  A    between atoms: _348  and  _349
REMARK  129  A    between atoms: _353  and  _354
REMARK  130  A    between atoms: _360  and  _361
REMARK  131  A    between atoms: _366  and  _368
REMARK  132  A    between atoms: _368  and  _369
REMARK  133  A    between atoms: _368  and  _371
REMARK  134  A    between atoms: _371  and  _372
REMARK  135  A    between atoms: _375  and  _377
REMARK  136  A    between atoms: _377  and  _378
REMARK  137  A    between atoms: _377  and  _380
REMARK  138  A    between atoms: _380  and  _381
REMARK  139  A    between atoms: _384  and  _386
REMARK  140  A    between atoms: _386  and  _387
REMARK  141  A    between atoms: _386  and  _389
REMARK  142  A    between atoms: _391  and  _393
REMARK  143  A    between atoms: _393  and  _394
REMARK  144  A    between atoms: _393  and  _396
REMARK  145  A    between atoms: _399  and  _401
REMARK  146  A    between atoms: _401  and  _402
REMARK  147  A    between atoms: _401  and  _404
REMARK  148  A    between atoms: _404  and  _405
REMARK  149  A    between atoms: _415  and  _417
REMARK  150  A    between atoms: _417  and  _418
REMARK  151  A    between atoms: _417  and  _420
REMARK  152  A    between atoms: _420  and  _421
REMARK  153  A    between atoms: _426  and  _428
REMARK  154  A    between atoms: _428  and  _429
REMARK  155  A    between atoms: _428  and  _431
REMARK  156  A    between atoms: _431  and  _432
REMARK  157  A    between atoms: _432  and  _433
REMARK  158  A    between atoms: _433  and  _434
REMARK                            x       y       z     vdW  Elec       q    Type
REMARK                         _______ _______ _______ _____ _____    ______ ____
ROOT
ATOM      1  C   SER A   1      -2.227  -2.894  23.229  0.00  0.00    +0.244 C 
ATOM      2  N   PRO A   2      -2.865  -4.048  22.981  0.00  0.00    -0.273 N 
ATOM      3  CA  PRO A   2      -4.029  -4.598  23.694  0.00  0.00    +0.140 C 
ATOM      4  CB  PRO A   2      -4.550  -5.629  22.710  0.00  0.00    +0.030 C 
ATOM      5  CG  PRO A   2      -3.293  -6.131  22.037  0.00  0.00    +0.024 C 
ATOM      6  CD  PRO A   2      -2.447  -4.920  21.861  0.00  0.00    +0.094 C 
ATOM      7  O   SER A   1      -1.252  -2.523  22.569  0.00  0.00    -0.273 OA
ENDROOT
BRANCH   3   8
ATOM      8  C   PRO A   2      -3.658  -5.300  25.004  0.00  0.00    +0.227 C 
ATOM      9  O   PRO A   2      -2.470  -5.395  25.341  0.00  0.00    -0.286 OA
ENDBRANCH   3   8
BRANCH   1  10
ATOM     10  CA  SER A   1      -2.770  -2.020  24.362  0.00  0.00    +0.175 C 
BRANCH  10  11
ATOM     11  N   SER A   1      -1.735  -1.111  24.828  0.00  0.00    -0.236 NA
ATOM     12  H   SER A   1      -1.305  -0.453  24.147  0.00  0.00    +0.142 HD
ENDBRANCH  10  11
BRANCH  10  13
ATOM     13  CB  SER A   1      -3.966  -1.220  23.869  0.00  0.00    +0.163 C 
BRANCH  13  14
ATOM     14  OG  SER A   1      -4.634  -0.590  24.957  0.00  0.00    -0.380 OA
ATOM     15  H   SER A   1      -4.950  -1.280  25.593  0.00  0.00    +0.211 HD
ENDBRANCH  13  14
ENDBRANCH  10  13
ENDBRANCH   1  10
TORSDOF 5
REMARK  Name = ../refined-set-2016/3dd8/3dd8_pocket.pdb
REMARK  158 active torsions:
REMARK  status: ('A' for Active; 'I' for Inactive)
REMARK    1  A    between atoms: _1  and  _3
REMARK    2  A    between atoms: _3  and  _4
REMARK    3  A    between atoms: _3  and  _6
REMARK    4  A    between atoms: _6  and  _7
REMARK    5  A    between atoms: _17  and  _19
REMARK    6  A    between atoms: _19  and  _20
REMARK    7  A    between atoms: _19  and  _22
REMARK    8  A    between atoms: _22  and  _23
REMARK    9  A    between atoms: _28  and  _29
REMARK   10  A    between atoms: _31  and  _33
REMARK   11  A    between atoms: _33  and  _34
REMARK   12  A    between atoms: _33  and  _36
REMARK   13  A    between atoms: _36  and  _37
REMARK   14  A    between atoms: _43  and  _45
REMARK   15  A    between atoms: _45  and  _46
REMARK   16  A    between atoms: _45  and  _48
REMARK   17  A    between atoms: _48  and  _49
REMARK   18  A    between atoms: _52  and  _53
REMARK   19  A    between atoms: _58  and  _60
REMARK   20  A    between atoms: _60  and  _61
REMARK   21  A    between atoms: _60  and  _63
REMARK   22  A    between atoms: _63  and  _64
REMARK   23  A    between atoms: _69  and  _71
REMARK   24  A    between atoms: _71  and  _72
REMARK   25  A    between atoms: _71  and  _74
REMARK   26  A    between atoms: _74  and  _75
REMARK   27  A    between atoms: _80  and  _82
REMARK   28  A    between atoms: _82  and  _83
REMARK   29  A    between atoms: _82  and  _85
REMARK   30  A    between atoms: _85  and  _86
REMARK   31  A    between atoms: _91  and  _93
REMARK   32  A    between atoms: _93  and  _94
REMARK   33  A    between atoms: _93  and  _96
REMARK   34  A    between atoms: _96  and  _97
REMARK   35  A    between atoms: _100  and  _102
REMARK   36  A    between atoms: _102  and  _103
REMARK   37  A    between atoms: _102  and  _105
REMARK   38  A    between atoms: _105  and  _106
REMARK   39  A    between atoms: _106  and  _107
REMARK   40  A    between atoms: _112  and  _114
REMARK   41  A    between atoms: _114  and  _115
REMARK   42  A    between atoms: _114  and  _117
REMARK   43  A    between atoms: _117  and  _118
REMARK   44  A    between atoms: _124  and  _126
REMARK   45  A    between atoms: _137  and  _140
REMARK   46  A    between atoms: _140  and  _141
REMARK   47  A    between atoms: _149  and  _150
REMARK   48  A    between atoms: _158  and  _160
REMARK   49  A    between atoms: _160  and  _161
REMARK   50  A    between atoms: _160  and  _163
REMARK   51  A    between atoms: _163  and  _164
REMARK   52  A    between atoms: _164  and  _165
REMARK   53  A    between atoms: _168  and  _170
REMARK   54  A    between atoms: _170  and  _171
REMARK   55  A    between atoms: _170  and  _173
REMARK   56  A    between atoms: _173  and  _174
REMARK   57  A    between atoms: _179  and  _181
REMARK   58  A    between atoms: _181  and  _182
REMARK   59  A    between atoms: _181  and  _184
REMARK   60  A    between atoms: _184  and  _185
REMARK   61  A    between atoms: _185  and  _186
REMARK   62  A    between atoms: _189  and  _191
REMARK   63  A    between atoms: _191  and  _192
REMARK   64  A    between atoms: _191  and  _194
REMARK   65  A    between atoms: _194  and  _195
REMARK   66  A    between atoms: _198  and  _200
REMARK   67  A    between atoms: _200  and  _201
REMARK   68  A    between atoms: _200  and  _203
REMARK   69  A    between atoms: _203  and  _204
REMARK   70  A    between atoms: _205  and  ZN_443
REMARK   71  A    between atoms: _209  and  _211
REMARK   72  A    between atoms: _211  and  _212
REMARK   73  A    between atoms: _211  and  _214
REMARK   74  A    between atoms: _214  and  _215
REMARK   75  A    between atoms: _218  and  _220
REMARK   76  A    between atoms: _220  and  _221
REMARK   77  A    between atoms: _220  and  _223
REMARK   78  A    between atoms: _226  and  _228
REMARK   79  A    between atoms: _228  and  _229
REMARK   80  A    between atoms: _228  and  _231
REMARK   81  A    between atoms: _231  and  _232
REMARK   82  A    between atoms: _237  and  _239
REMARK   83  A    between atoms: _239  and  _240
REMARK   84  A    between atoms: _239  and  _242
REMARK   85  A    between atoms: _242  and  _243
REMARK   86  A    between atoms: _249  and  _251
REMARK   87  A    between atoms: _251  and  _252
REMARK   88  A    between atoms: _254  and  _256
REMARK   89  A    between atoms: _256  and  _257
REMARK   90  A    between atoms: _260  and  _262
REMARK   91  A    between atoms: _262  and  _263
REMARK   92  A    between atoms: _262  and  _265
REMARK   93  A    between atoms: _268  and  _270
REMARK   94  A    between atoms: _270  and  _271
REMARK   95  A    between atoms: _270  and  _273
REMARK   96  A    between atoms: _273  and  _274
REMARK   97  A    between atoms: _274  and  _275
REMARK   98  A    between atoms: _280  and  _282
REMARK   99  A    between atoms: _282  and  _283
REMARK  100  A    between atoms: _282  and  _285
REMARK  101  A    between atoms: _285  and  _286
REMARK  102  A    between atoms: _289  and  _291
REMARK  103  A    between atoms: _291  and  _292
REMARK  104  A    between atoms: _295  and  _297
REMARK  105  A    between atoms: _297  and  _298
REMARK  106  A    between atoms: _297  and  _300
REMARK  107  A    between atoms: _303  and  _305
REMARK  108  A    between atoms: _305  and  _306
REMARK  109  A    between atoms: _305  and  _308
REMARK  110  A    between atoms: _308  and  _309
REMARK  111  A    between atoms: _312  and  _314
REMARK  112  A    between atoms: _314  and  _315
REMARK  113  A    between atoms: _317  and  _319
REMARK  114  A    between atoms: _319  and  _320
REMARK  115  A    between atoms: _319  and  _322
REMARK  116  A    between atoms: _322  and  _323
REMARK  117  A    between atoms: _325  and  _327
REMARK  118  A    between atoms: _327  and  _328
REMARK  119  A    between atoms: _327  and  _330
REMARK  120  A    between atoms: _330  and  _331
REMARK  121  A    between atoms: _334  and  _336
REMARK  122  A    between atoms: _336  and  _337
REMARK  123  A    between atoms: _336  and  _339
REMARK  124  A    between atoms: _339  and  _340
REMARK  125  A    between atoms: _343  and  _345
REMARK  126  A    between atoms: _345  and  _346
REMARK  127  A    between atoms: _345  and  _348
REMARK  128  A    between atoms: _348  and  _349
REMARK  129  A    between atoms: _353  and  _354
REMARK  130  A    between atoms: _360  and  _361
REMARK  131  A    between atoms: _366  and  _368
REMARK  132  A    between atoms: _368  and  _369
REMARK  133  A    between atoms: _368  and  _371
REMARK  134  A    between atoms: _371  and  _372
REMARK  135  A    between atoms: _375  and  _377
REMARK  136  A    between atoms: _377  and  _378
REMARK  137  A    between atoms: _377  and  _380
REMARK  138  A    between atoms: _380  and  _381
REMARK  139  A    between atoms: _384  and  _386
REMARK  140  A    between atoms: _386  and  _387
REMARK  141  A    between atoms: _386  and  _389
REMARK  142  A    between atoms: _391  and  _393
REMARK  143  A    between atoms: _393  and  _394
REMARK  144  A    between atoms: _393  and  _396
REMARK  145  A    between atoms: _399  and  _401
REMARK  146  A    between atoms: _401  and  _402
REMARK  147  A    between atoms: _401  and  _404
REMARK  148  A    between atoms: _404  and  _405
REMARK  149  A    between atoms: _415  and  _417
REMARK  150  A    between atoms: _417  and  _418
REMARK  151  A    between atoms: _417  and  _420
REMARK  152  A    between atoms: _420  and  _421
REMARK  153  A    between atoms: _426  and  _428
REMARK  154  A    between atoms: _428  and  _429
REMARK  155  A    between atoms: _428  and  _431
REMARK  156  A    between atoms: _431  and  _432
REMARK  157  A    between atoms: _432  and  _433
REMARK  158  A    between atoms: _433  and  _434
REMARK                            x       y       z     vdW  Elec       q    Type
REMARK                         _______ _______ _______ _____ _____    ______ ____
ROOT
ATOM      1  CB  ASN A   1      -2.614   1.925   5.408  0.00  0.00    +0.110 C 
ENDROOT
BRANCH   1   2
ATOM      2  CG  ASN A   1      -2.828   1.056   6.640  0.00  0.00    +0.221 C 
ATOM      3  ND2 ASN A   1      -3.213   1.686   7.738  0.00  0.00    -0.329 N 
ATOM      4 HD21 ASN A   1      -3.359   1.153   8.619  0.00  0.00    +0.145 HD
ATOM      5 HD22 ASN A   1      -3.369   2.714   7.720  0.00  0.00    +0.145 HD
ATOM      6  OD1 ASN A   1      -2.630  -0.161   6.612  0.00  0.00    -0.275 OA
ENDBRANCH   1   2
BRANCH   1   7
ATOM      7  CA  ASN A   1      -2.189   1.119   4.168  0.00  0.00    +0.142 C 
BRANCH   7   8
ATOM      8  N   ASN A   1      -3.302   0.307   3.658  0.00  0.00    -0.239 NA
ATOM      9  H   ASN A   1      -3.850  -0.282   4.316  0.00  0.00    +0.142 HD
ENDBRANCH   7   8
BRANCH   7  10
ATOM     10  C   ASN A   1      -0.909   0.320   4.435  0.00  0.00    +0.225 C 
ATOM     11  O   ASN A   1       0.016   0.827   5.062  0.00  0.00    -0.287 OA
ENDBRANCH   7  10
ENDBRANCH   1   7
TORSDOF 4
REMARK  Name = ../refined-set-2016/3dd8/3dd8_pocket.pdb
REMARK  158 active torsions:
REMARK  status: ('A' for Active; 'I' for Inactive)
REMARK    1  A    between atoms: _1  and  _3
REMARK    2  A    between atoms: _3  and  _4
REMARK    3  A    between atoms: _3  and  _6
REMARK    4  A    between atoms: _6  and  _7
REMARK    5  A    between atoms: _17  and  _19
REMARK    6  A    between atoms: _19  and  _20
REMARK    7  A    between atoms: _19  and  _22
REMARK    8  A    between atoms: _22  and  _23
REMARK    9  A    between atoms: _28  and  _29
REMARK   10  A    between atoms: _31  and  _33
REMARK   11  A    between atoms: _33  and  _34
REMARK   12  A    between atoms: _33  and  _36
REMARK   13  A    between atoms: _36  and  _37
REMARK   14  A    between atoms: _43  and  _45
REMARK   15  A    between atoms: _45  and  _46
REMARK   16  A    between atoms: _45  and  _48
REMARK   17  A    between atoms: _48  and  _49
REMARK   18  A    between atoms: _52  and  _53
REMARK   19  A    between atoms: _58  and  _60
REMARK   20  A    between atoms: _60  and  _61
REMARK   21  A    between atoms: _60  and  _63
REMARK   22  A    between atoms: _63  and  _64
REMARK   23  A    between atoms: _69  and  _71
REMARK   24  A    between atoms: _71  and  _72
REMARK   25  A    between atoms: _71  and  _74
REMARK   26  A    between atoms: _74  and  _75
REMARK   27  A    between atoms: _80  and  _82
REMARK   28  A    between atoms: _82  and  _83
REMARK   29  A    between atoms: _82  and  _85
REMARK   30  A    between atoms: _85  and  _86
REMARK   31  A    between atoms: _91  and  _93
REMARK   32  A    between atoms: _93  and  _94
REMARK   33  A    between atoms: _93  and  _96
REMARK   34  A    between atoms: _96  and  _97
REMARK   35  A    between atoms: _100  and  _102
REMARK   36  A    between atoms: _102  and  _103
REMARK   37  A    between atoms: _102  and  _105
REMARK   38  A    between atoms: _105  and  _106
REMARK   39  A    between atoms: _106  and  _107
REMARK   40  A    between atoms: _112  and  _114
REMARK   41  A    between atoms: _114  and  _115
REMARK   42  A    between atoms: _114  and  _117
REMARK   43  A    between atoms: _117  and  _118
REMARK   44  A    between atoms: _124  and  _126
REMARK   45  A    between atoms: _137  and  _140
REMARK   46  A    between atoms: _140  and  _141
REMARK   47  A    between atoms: _149  and  _150
REMARK   48  A    between atoms: _158  and  _160
REMARK   49  A    between atoms: _160  and  _161
REMARK   50  A    between atoms: _160  and  _163
REMARK   51  A    between atoms: _163  and  _164
REMARK   52  A    between atoms: _164  and  _165
REMARK   53  A    between atoms: _168  and  _170
REMARK   54  A    between atoms: _170  and  _171
REMARK   55  A    between atoms: _170  and  _173
REMARK   56  A    between atoms: _173  and  _174
REMARK   57  A    between atoms: _179  and  _181
REMARK   58  A    between atoms: _181  and  _182
REMARK   59  A    between atoms: _181  and  _184
REMARK   60  A    between atoms: _184  and  _185
REMARK   61  A    between atoms: _185  and  _186
REMARK   62  A    between atoms: _189  and  _191
REMARK   63  A    between atoms: _191  and  _192
REMARK   64  A    between atoms: _191  and  _194
REMARK   65  A    between atoms: _194  and  _195
REMARK   66  A    between atoms: _198  and  _200
REMARK   67  A    between atoms: _200  and  _201
REMARK   68  A    between atoms: _200  and  _203
REMARK   69  A    between atoms: _203  and  _204
REMARK   70  A    between atoms: _205  and  ZN_443
REMARK   71  A    between atoms: _209  and  _211
REMARK   72  A    between atoms: _211  and  _212
REMARK   73  A    between atoms: _211  and  _214
REMARK   74  A    between atoms: _214  and  _215
REMARK   75  A    between atoms: _218  and  _220
REMARK   76  A    between atoms: _220  and  _221
REMARK   77  A    between atoms: _220  and  _223
REMARK   78  A    between atoms: _226  and  _228
REMARK   79  A    between atoms: _228  and  _229
REMARK   80  A    between atoms: _228  and  _231
REMARK   81  A    between atoms: _231  and  _232
REMARK   82  A    between atoms: _237  and  _239
REMARK   83  A    between atoms: _239  and  _240
REMARK   84  A    between atoms: _239  and  _242
REMARK   85  A    between atoms: _242  and  _243
REMARK   86  A    between atoms: _249  and  _251
REMARK   87  A    between atoms: _251  and  _252
REMARK   88  A    between atoms: _254  and  _256
REMARK   89  A    between atoms: _256  and  _257
REMARK   90  A    between atoms: _260  and  _262
REMARK   91  A    between atoms: _262  and  _263
REMARK   92  A    between atoms: _262  and  _265
REMARK   93  A    between atoms: _268  and  _270
REMARK   94  A    between atoms: _270  and  _271
REMARK   95  A    between atoms: _270  and  _273
REMARK   96  A    between atoms: _273  and  _274
REMARK   97  A    between atoms: _274  and  _275
REMARK   98  A    between atoms: _280  and  _282
REMARK   99  A    between atoms: _282  and  _283
REMARK  100  A    between atoms: _282  and  _285
REMARK  101  A    between atoms: _285  and  _286
REMARK  102  A    between atoms: _289  and  _291
REMARK  103  A    between atoms: _291  and  _292
REMARK  104  A    between atoms: _295  and  _297
REMARK  105  A    between atoms: _297  and  _298
REMARK  106  A    between atoms: _297  and  _300
REMARK  107  A    between atoms: _303  and  _305
REMARK  108  A    between atoms: _305  and  _306
REMARK  109  A    between atoms: _305  and  _308
REMARK  110  A    between atoms: _308  and  _309
REMARK  111  A    between atoms: _312  and  _314
REMARK  112  A    between atoms: _314  and  _315
REMARK  113  A    between atoms: _317  and  _319
REMARK  114  A    between atoms: _319  and  _320
REMARK  115  A    between atoms: _319  and  _322
REMARK  116  A    between atoms: _322  and  _323
REMARK  117  A    between atoms: _325  and  _327
REMARK  118  A    between atoms: _327  and  _328
REMARK  119  A    between atoms: _327  and  _330
REMARK  120  A    between atoms: _330  and  _331
REMARK  121  A    between atoms: _334  and  _336
REMARK  122  A    between atoms: _336  and  _337
REMARK  123  A    between atoms: _336  and  _339
REMARK  124  A    between atoms: _339  and  _340
REMARK  125  A    between atoms: _343  and  _345
REMARK  126  A    between atoms: _345  and  _346
REMARK  127  A    between atoms: _345  and  _348
REMARK  128  A    between atoms: _348  and  _349
REMARK  129  A    between atoms: _353  and  _354
REMARK  130  A    between atoms: _360  and  _361
REMARK  131  A    between atoms: _366  and  _368
REMARK  132  A    between atoms: _368  and  _369
REMARK  133  A    between atoms: _368  and  _371
REMARK  134  A    between atoms: _371  and  _372
REMARK  135  A    between atoms: _375  and  _377
REMARK  136  A    between atoms: _377  and  _378
REMARK  137  A    between atoms: _377  and  _380
REMARK  138  A    between atoms: _380  and  _381
REMARK  139  A    between atoms: _384  and  _386
REMARK  140  A    between atoms: _386  and  _387
REMARK  141  A    between atoms: _386  and  _389
REMARK  142  A    between atoms: _391  and  _393
REMARK  143  A    between atoms: _393  and  _394
REMARK  144  A    between atoms: _393  and  _396
REMARK  145  A    between atoms: _399  and  _401
REMARK  146  A    between atoms: _401  and  _402
REMARK  147  A    between atoms: _401  and  _404
REMARK  148  A    between atoms: _404  and  _405
REMARK  149  A    between atoms: _415  and  _417
REMARK  150  A    between atoms: _417  and  _418
REMARK  151  A    between atoms: _417  and  _420
REMARK  152  A    between atoms: _420  and  _421
REMARK  153  A    between atoms: _426  and  _428
REMARK  154  A    between atoms: _428  and  _429
REMARK  155  A    between atoms: _428  and  _431
REMARK  156  A    between atoms: _431  and  _432
REMARK  157  A    between atoms: _432  and  _433
REMARK  158  A    between atoms: _433  and  _434
REMARK                            x       y       z     vdW  Elec       q    Type
REMARK                         _______ _______ _______ _____ _____    ______ ____
ROOT
ATOM      1  CB  HIS A   1      -0.516  -1.977   8.750  0.00  0.00    +0.072 C 
ENDROOT
BRANCH   1   2
ATOM      2  CG  HIS A   1       0.658  -1.090   8.504  0.00  0.00    +0.082 A 
ATOM      3  ND1 HIS A   1       1.948  -1.571   8.457  0.00  0.00    -0.227 NA
ATOM      4  CE1 HIS A   1       2.775  -0.576   8.192  0.00  0.00    +0.199 A 
ATOM      5  NE2 HIS A   1       2.067   0.529   8.054  0.00  0.00    -0.221 NA
ATOM      6  CD2 HIS A   1       0.739   0.235   8.246  0.00  0.00    +0.115 A 
ENDBRANCH   1   2
BRANCH   1   7
ATOM      7  CA  HIS A   1      -0.756  -2.984   7.609  0.00  0.00    +0.139 C 
BRANCH   7   8
ATOM      8  N   HIS A   1      -0.633  -2.307   6.303  0.00  0.00    -0.239 NA
ATOM      9  H   HIS A   1      -1.364  -1.615   6.040  0.00  0.00    +0.142 HD
ENDBRANCH   7   8
BRANCH   7  10
ATOM     10  C   HIS A   1      -2.131  -3.632   7.762  0.00  0.00    +0.224 C 
ATOM     11  O   HIS A   1      -2.261  -4.775   8.225  0.00  0.00    -0.287 OA
ENDBRANCH   7  10
ENDBRANCH   1   7
TORSDOF 4
REMARK  Name = ../refined-set-2016/3dd8/3dd8_pocket.pdb
REMARK  158 active torsions:
REMARK  status: ('A' for Active; 'I' for Inactive)
REMARK    1  A    between atoms: _1  and  _3
REMARK    2  A    between atoms: _3  and  _4
REMARK    3  A    between atoms: _3  and  _6
REMARK    4  A    between atoms: _6  and  _7
REMARK    5  A    between atoms: _17  and  _19
REMARK    6  A    between atoms: _19  and  _20
REMARK    7  A    between atoms: _19  and  _22
REMARK    8  A    between atoms: _22  and  _23
REMARK    9  A    between atoms: _28  and  _29
REMARK   10  A    between atoms: _31  and  _33
REMARK   11  A    between atoms: _33  and  _34
REMARK   12  A    between atoms: _33  and  _36
REMARK   13  A    between atoms: _36  and  _37
REMARK   14  A    between atoms: _43  and  _45
REMARK   15  A    between atoms: _45  and  _46
REMARK   16  A    between atoms: _45  and  _48
REMARK   17  A    between atoms: _48  and  _49
REMARK   18  A    between atoms: _52  and  _53
REMARK   19  A    between atoms: _58  and  _60
REMARK   20  A    between atoms: _60  and  _61
REMARK   21  A    between atoms: _60  and  _63
REMARK   22  A    between atoms: _63  and  _64
REMARK   23  A    between atoms: _69  and  _71
REMARK   24  A    between atoms: _71  and  _72
REMARK   25  A    between atoms: _71  and  _74
REMARK   26  A    between atoms: _74  and  _75
REMARK   27  A    between atoms: _80  and  _82
REMARK   28  A    between atoms: _82  and  _83
REMARK   29  A    between atoms: _82  and  _85
REMARK   30  A    between atoms: _85  and  _86
REMARK   31  A    between atoms: _91  and  _93
REMARK   32  A    between atoms: _93  and  _94
REMARK   33  A    between atoms: _93  and  _96
REMARK   34  A    between atoms: _96  and  _97
REMARK   35  A    between atoms: _100  and  _102
REMARK   36  A    between atoms: _102  and  _103
REMARK   37  A    between atoms: _102  and  _105
REMARK   38  A    between atoms: _105  and  _106
REMARK   39  A    between atoms: _106  and  _107
REMARK   40  A    between atoms: _112  and  _114
REMARK   41  A    between atoms: _114  and  _115
REMARK   42  A    between atoms: _114  and  _117
REMARK   43  A    between atoms: _117  and  _118
REMARK   44  A    between atoms: _124  and  _126
REMARK   45  A    between atoms: _137  and  _140
REMARK   46  A    between atoms: _140  and  _141
REMARK   47  A    between atoms: _149  and  _150
REMARK   48  A    between atoms: _158  and  _160
REMARK   49  A    between atoms: _160  and  _161
REMARK   50  A    between atoms: _160  and  _163
REMARK   51  A    between atoms: _163  and  _164
REMARK   52  A    between atoms: _164  and  _165
REMARK   53  A    between atoms: _168  and  _170
REMARK   54  A    between atoms: _170  and  _171
REMARK   55  A    between atoms: _170  and  _173
REMARK   56  A    between atoms: _173  and  _174
REMARK   57  A    between atoms: _179  and  _181
REMARK   58  A    between atoms: _181  and  _182
REMARK   59  A    between atoms: _181  and  _184
REMARK   60  A    between atoms: _184  and  _185
REMARK   61  A    between atoms: _185  and  _186
REMARK   62  A    between atoms: _189  and  _191
REMARK   63  A    between atoms: _191  and  _192
REMARK   64  A    between atoms: _191  and  _194
REMARK   65  A    between atoms: _194  and  _195
REMARK   66  A    between atoms: _198  and  _200
REMARK   67  A    between atoms: _200  and  _201
REMARK   68  A    between atoms: _200  and  _203
REMARK   69  A    between atoms: _203  and  _204
REMARK   70  A    between atoms: _205  and  ZN_443
REMARK   71  A    between atoms: _209  and  _211
REMARK   72  A    between atoms: _211  and  _212
REMARK   73  A    between atoms: _211  and  _214
REMARK   74  A    between atoms: _214  and  _215
REMARK   75  A    between atoms: _218  and  _220
REMARK   76  A    between atoms: _220  and  _221
REMARK   77  A    between atoms: _220  and  _223
REMARK   78  A    between atoms: _226  and  _228
REMARK   79  A    between atoms: _228  and  _229
REMARK   80  A    between atoms: _228  and  _231
REMARK   81  A    between atoms: _231  and  _232
REMARK   82  A    between atoms: _237  and  _239
REMARK   83  A    between atoms: _239  and  _240
REMARK   84  A    between atoms: _239  and  _242
REMARK   85  A    between atoms: _242  and  _243
REMARK   86  A    between atoms: _249  and  _251
REMARK   87  A    between atoms: _251  and  _252
REMARK   88  A    between atoms: _254  and  _256
REMARK   89  A    between atoms: _256  and  _257
REMARK   90  A    between atoms: _260  and  _262
REMARK   91  A    between atoms: _262  and  _263
REMARK   92  A    between atoms: _262  and  _265
REMARK   93  A    between atoms: _268  and  _270
REMARK   94  A    between atoms: _270  and  _271
REMARK   95  A    between atoms: _270  and  _273
REMARK   96  A    between atoms: _273  and  _274
REMARK   97  A    between atoms: _274  and  _275
REMARK   98  A    between atoms: _280  and  _282
REMARK   99  A    between atoms: _282  and  _283
REMARK  100  A    between atoms: _282  and  _285
REMARK  101  A    between atoms: _285  and  _286
REMARK  102  A    between atoms: _289  and  _291
REMARK  103  A    between atoms: _291  and  _292
REMARK  104  A    between atoms: _295  and  _297
REMARK  105  A    between atoms: _297  and  _298
REMARK  106  A    between atoms: _297  and  _300
REMARK  107  A    between atoms: _303  and  _305
REMARK  108  A    between atoms: _305  and  _306
REMARK  109  A    between atoms: _305  and  _308
REMARK  110  A    between atoms: _308  and  _309
REMARK  111  A    between atoms: _312  and  _314
REMARK  112  A    between atoms: _314  and  _315
REMARK  113  A    between atoms: _317  and  _319
REMARK  114  A    between atoms: _319  and  _320
REMARK  115  A    between atoms: _319  and  _322
REMARK  116  A    between atoms: _322  and  _323
REMARK  117  A    between atoms: _325  and  _327
REMARK  118  A    between atoms: _327  and  _328
REMARK  119  A    between atoms: _327  and  _330
REMARK  120  A    between atoms: _330  and  _331
REMARK  121  A    between atoms: _334  and  _336
REMARK  122  A    between atoms: _336  and  _337
REMARK  123  A    between atoms: _336  and  _339
REMARK  124  A    between atoms: _339  and  _340
REMARK  125  A    between atoms: _343  and  _345
REMARK  126  A    between atoms: _345  and  _346
REMARK  127  A    between atoms: _345  and  _348
REMARK  128  A    between atoms: _348  and  _349
REMARK  129  A    between atoms: _353  and  _354
REMARK  130  A    between atoms: _360  and  _361
REMARK  131  A    between atoms: _366  and  _368
REMARK  132  A    between atoms: _368  and  _369
REMARK  133  A    between atoms: _368  and  _371
REMARK  134  A    between atoms: _371  and  _372
REMARK  135  A    between atoms: _375  and  _377
REMARK  136  A    between atoms: _377  and  _378
REMARK  137  A    between atoms: _377  and  _380
REMARK  138  A    between atoms: _380  and  _381
REMARK  139  A    between atoms: _384  and  _386
REMARK  140  A    between atoms: _386  and  _387
REMARK  141  A    between atoms: _386  and  _389
REMARK  142  A    between atoms: _391  and  _393
REMARK  143  A    between atoms: _393  and  _394
REMARK  144  A    between atoms: _393  and  _396
REMARK  145  A    between atoms: _399  and  _401
REMARK  146  A    between atoms: _401  and  _402
REMARK  147  A    between atoms: _401  and  _404
REMARK  148  A    between atoms: _404  and  _405
REMARK  149  A    between atoms: _415  and  _417
REMARK  150  A    between atoms: _417  and  _418
REMARK  151  A    between atoms: _417  and  _420
REMARK  152  A    between atoms: _420  and  _421
REMARK  153  A    between atoms: _426  and  _428
REMARK  154  A    between atoms: _428  and  _429
REMARK  155  A    between atoms: _428  and  _431
REMARK  156  A    between atoms: _431  and  _432
REMARK  157  A    between atoms: _432  and  _433
REMARK  158  A    between atoms: _433  and  _434
REMARK                            x       y       z     vdW  Elec       q    Type
REMARK                         _______ _______ _______ _____ _____    ______ ____
ROOT
ATOM      1  CB  ASN A   1      -8.334   2.755   7.068  0.00  0.00    +0.110 C 
ENDROOT
BRANCH   1   2
ATOM      2  CG  ASN A   1      -7.083   2.497   7.903  0.00  0.00    +0.221 C 
ATOM      3  ND2 ASN A   1      -7.120   1.491   8.758  0.00  0.00    -0.329 N 
ATOM      4 HD21 ASN A   1      -6.298   1.293   9.363  0.00  0.00    +0.145 HD
ATOM      5 HD22 ASN A   1      -7.971   0.897   8.826  0.00  0.00    +0.145 HD
ATOM      6  OD1 ASN A   1      -6.096   3.233   7.783  0.00  0.00    -0.275 OA
ENDBRANCH   1   2
BRANCH   1   7
ATOM      7  CA  ASN A   1      -9.106   1.479   6.699  0.00  0.00    +0.142 C 
BRANCH   7   8
ATOM      8  N   ASN A   1      -8.258   0.543   5.960  0.00  0.00    -0.239 NA
ATOM      9  H   ASN A   1      -7.684   0.901   5.170  0.00  0.00    +0.142 HD
ENDBRANCH   7   8
BRANCH   7  10
ATOM     10  C   ASN A   1     -10.322   1.884   5.865  0.00  0.00    +0.225 C 
ATOM     11  O   ASN A   1     -10.163   2.284   4.710  0.00  0.00    -0.287 OA
ENDBRANCH   7  10
ENDBRANCH   1   7
TORSDOF 4
REMARK  Name = ../refined-set-2016/3dd8/3dd8_pocket.pdb
REMARK  158 active torsions:
REMARK  status: ('A' for Active; 'I' for Inactive)
REMARK    1  A    between atoms: _1  and  _3
REMARK    2  A    between atoms: _3  and  _4
REMARK    3  A    between atoms: _3  and  _6
REMARK    4  A    between atoms: _6  and  _7
REMARK    5  A    between atoms: _17  and  _19
REMARK    6  A    between atoms: _19  and  _20
REMARK    7  A    between atoms: _19  and  _22
REMARK    8  A    between atoms: _22  and  _23
REMARK    9  A    between atoms: _28  and  _29
REMARK   10  A    between atoms: _31  and  _33
REMARK   11  A    between atoms: _33  and  _34
REMARK   12  A    between atoms: _33  and  _36
REMARK   13  A    between atoms: _36  and  _37
REMARK   14  A    between atoms: _43  and  _45
REMARK   15  A    between atoms: _45  and  _46
REMARK   16  A    between atoms: _45  and  _48
REMARK   17  A    between atoms: _48  and  _49
REMARK   18  A    between atoms: _52  and  _53
REMARK   19  A    between atoms: _58  and  _60
REMARK   20  A    between atoms: _60  and  _61
REMARK   21  A    between atoms: _60  and  _63
REMARK   22  A    between atoms: _63  and  _64
REMARK   23  A    between atoms: _69  and  _71
REMARK   24  A    between atoms: _71  and  _72
REMARK   25  A    between atoms: _71  and  _74
REMARK   26  A    between atoms: _74  and  _75
REMARK   27  A    between atoms: _80  and  _82
REMARK   28  A    between atoms: _82  and  _83
REMARK   29  A    between atoms: _82  and  _85
REMARK   30  A    between atoms: _85  and  _86
REMARK   31  A    between atoms: _91  and  _93
REMARK   32  A    between atoms: _93  and  _94
REMARK   33  A    between atoms: _93  and  _96
REMARK   34  A    between atoms: _96  and  _97
REMARK   35  A    between atoms: _100  and  _102
REMARK   36  A    between atoms: _102  and  _103
REMARK   37  A    between atoms: _102  and  _105
REMARK   38  A    between atoms: _105  and  _106
REMARK   39  A    between atoms: _106  and  _107
REMARK   40  A    between atoms: _112  and  _114
REMARK   41  A    between atoms: _114  and  _115
REMARK   42  A    between atoms: _114  and  _117
REMARK   43  A    between atoms: _117  and  _118
REMARK   44  A    between atoms: _124  and  _126
REMARK   45  A    between atoms: _137  and  _140
REMARK   46  A    between atoms: _140  and  _141
REMARK   47  A    between atoms: _149  and  _150
REMARK   48  A    between atoms: _158  and  _160
REMARK   49  A    between atoms: _160  and  _161
REMARK   50  A    between atoms: _160  and  _163
REMARK   51  A    between atoms: _163  and  _164
REMARK   52  A    between atoms: _164  and  _165
REMARK   53  A    between atoms: _168  and  _170
REMARK   54  A    between atoms: _170  and  _171
REMARK   55  A    between atoms: _170  and  _173
REMARK   56  A    between atoms: _173  and  _174
REMARK   57  A    between atoms: _179  and  _181
REMARK   58  A    between atoms: _181  and  _182
REMARK   59  A    between atoms: _181  and  _184
REMARK   60  A    between atoms: _184  and  _185
REMARK   61  A    between atoms: _185  and  _186
REMARK   62  A    between atoms: _189  and  _191
REMARK   63  A    between atoms: _191  and  _192
REMARK   64  A    between atoms: _191  and  _194
REMARK   65  A    between atoms: _194  and  _195
REMARK   66  A    between atoms: _198  and  _200
REMARK   67  A    between atoms: _200  and  _201
REMARK   68  A    between atoms: _200  and  _203
REMARK   69  A    between atoms: _203  and  _204
REMARK   70  A    between atoms: _205  and  ZN_443
REMARK   71  A    between atoms: _209  and  _211
REMARK   72  A    between atoms: _211  and  _212
REMARK   73  A    between atoms: _211  and  _214
REMARK   74  A    between atoms: _214  and  _215
REMARK   75  A    between atoms: _218  and  _220
REMARK   76  A    between atoms: _220  and  _221
REMARK   77  A    between atoms: _220  and  _223
REMARK   78  A    between atoms: _226  and  _228
REMARK   79  A    between atoms: _228  and  _229
REMARK   80  A    between atoms: _228  and  _231
REMARK   81  A    between atoms: _231  and  _232
REMARK   82  A    between atoms: _237  and  _239
REMARK   83  A    between atoms: _239  and  _240
REMARK   84  A    between atoms: _239  and  _242
REMARK   85  A    between atoms: _242  and  _243
REMARK   86  A    between atoms: _249  and  _251
REMARK   87  A    between atoms: _251  and  _252
REMARK   88  A    between atoms: _254  and  _256
REMARK   89  A    between atoms: _256  and  _257
REMARK   90  A    between atoms: _260  and  _262
REMARK   91  A    between atoms: _262  and  _263
REMARK   92  A    between atoms: _262  and  _265
REMARK   93  A    between atoms: _268  and  _270
REMARK   94  A    between atoms: _270  and  _271
REMARK   95  A    between atoms: _270  and  _273
REMARK   96  A    between atoms: _273  and  _274
REMARK   97  A    between atoms: _274  and  _275
REMARK   98  A    between atoms: _280  and  _282
REMARK   99  A    between atoms: _282  and  _283
REMARK  100  A    between atoms: _282  and  _285
REMARK  101  A    between atoms: _285  and  _286
REMARK  102  A    between atoms: _289  and  _291
REMARK  103  A    between atoms: _291  and  _292
REMARK  104  A    between atoms: _295  and  _297
REMARK  105  A    between atoms: _297  and  _298
REMARK  106  A    between atoms: _297  and  _300
REMARK  107  A    between atoms: _303  and  _305
REMARK  108  A    between atoms: _305  and  _306
REMARK  109  A    between atoms: _305  and  _308
REMARK  110  A    between atoms: _308  and  _309
REMARK  111  A    between atoms: _312  and  _314
REMARK  112  A    between atoms: _314  and  _315
REMARK  113  A    between atoms: _317  and  _319
REMARK  114  A    between atoms: _319  and  _320
REMARK  115  A    between atoms: _319  and  _322
REMARK  116  A    between atoms: _322  and  _323
REMARK  117  A    between atoms: _325  and  _327
REMARK  118  A    between atoms: _327  and  _328
REMARK  119  A    between atoms: _327  and  _330
REMARK  120  A    between atoms: _330  and  _331
REMARK  121  A    between atoms: _334  and  _336
REMARK  122  A    between atoms: _336  and  _337
REMARK  123  A    between atoms: _336  and  _339
REMARK  124  A    between atoms: _339  and  _340
REMARK  125  A    between atoms: _343  and  _345
REMARK  126  A    between atoms: _345  and  _346
REMARK  127  A    between atoms: _345  and  _348
REMARK  128  A    between atoms: _348  and  _349
REMARK  129  A    between atoms: _353  and  _354
REMARK  130  A    between atoms: _360  and  _361
REMARK  131  A    between atoms: _366  and  _368
REMARK  132  A    between atoms: _368  and  _369
REMARK  133  A    between atoms: _368  and  _371
REMARK  134  A    between atoms: _371  and  _372
REMARK  135  A    between atoms: _375  and  _377
REMARK  136  A    between atoms: _377  and  _378
REMARK  137  A    between atoms: _377  and  _380
REMARK  138  A    between atoms: _380  and  _381
REMARK  139  A    between atoms: _384  and  _386
REMARK  140  A    between atoms: _386  and  _387
REMARK  141  A    between atoms: _386  and  _389
REMARK  142  A    between atoms: _391  and  _393
REMARK  143  A    between atoms: _393  and  _394
REMARK  144  A    between atoms: _393  and  _396
REMARK  145  A    between atoms: _399  and  _401
REMARK  146  A    between atoms: _401  and  _402
REMARK  147  A    between atoms: _401  and  _404
REMARK  148  A    between atoms: _404  and  _405
REMARK  149  A    between atoms: _415  and  _417
REMARK  150  A    between atoms: _417  and  _418
REMARK  151  A    between atoms: _417  and  _420
REMARK  152  A    between atoms: _420  and  _421
REMARK  153  A    between atoms: _426  and  _428
REMARK  154  A    between atoms: _428  and  _429
REMARK  155  A    between atoms: _428  and  _431
REMARK  156  A    between atoms: _431  and  _432
REMARK  157  A    between atoms: _432  and  _433
REMARK  158  A    between atoms: _433  and  _434
REMARK                            x       y       z     vdW  Elec       q    Type
REMARK                         _______ _______ _______ _____ _____    ______ ____
ROOT
ATOM      1  C   UNK A   4     -10.168  -1.433  10.359  0.00  0.00    +0.000 C 
ATOM      2  C   UNK A   4     -10.247  -2.681  11.220  0.00  0.00    +0.000 C 
ATOM      3  O   UNK A   4     -10.831  -2.654  12.302  0.00  0.00    +0.000 OA
ATOM      4  N   VAL A   5      -9.621  -3.752  10.746  0.00  0.00    +0.000 N 
ATOM      5  CA  VAL A   5      -9.634  -5.029  11.429  0.00  0.00    +0.000 C 
ATOM      6  C   VAL A   5      -8.206  -5.497  11.655  0.00  0.00    +0.000 C 
ATOM      7  N   UNK A   6      -8.063  -6.425  12.594  0.00  0.00    +0.000 N 
ATOM      8  H   UNK A   6      -8.849  -6.594  13.253  0.00  0.00    +0.000 HD
ATOM      9  C   UNK A   6      -6.846  -7.217  12.737  0.00  0.00    +0.000 C 
ATOM     10  C   UNK A   6      -6.202  -6.960  14.097  0.00  0.00    +0.000 C 
ATOM     11  C   UNK A   6      -5.946  -5.511  14.362  0.00  0.00    +0.000 A 
ATOM     12  C   UNK A   6      -6.783  -4.515  14.731  0.00  0.00    +0.000 A 
ATOM     13  N   UNK A   6      -6.039  -3.363  14.795  0.00  0.00    +0.000 N 
ATOM     14 ZN   UNK A   6      -6.832  -1.662  15.475  0.00  0.00    +0.000 Zn
ATOM     15  N   UNK A   4      -7.468  -0.699  13.844  0.00  0.00    +0.000 N 
ATOM     16  C   UNK A   4      -7.933   0.520  13.644  0.00  0.00    +0.000 A 
ATOM     17  N   UNK A   4      -8.429   0.583  12.422  0.00  0.00    +0.000 NA
ATOM     18  C   UNK A   4      -8.270  -0.636  11.805  0.00  0.00    +0.000 A 
ATOM     19  C   UNK A   4      -7.675  -1.446  12.713  0.00  0.00    +0.000 A 
ATOM     20  C   UNK A   6      -4.790  -3.642  14.473  0.00  0.00    +0.000 A 
ATOM     21  N   UNK A   6      -4.705  -4.931  14.200  0.00  0.00    +0.000 NA
ATOM     22  O   VAL A   5      -7.263  -5.039  10.981  0.00  0.00    +0.000 OA
ATOM     23  H   VAL A   5      -9.101  -3.670   9.849  0.00  0.00    +0.000 HD
ATOM     24  C   UNK A   4      -8.743  -0.897  10.417  0.00  0.00    +0.000 C 
ENDROOT
BRANCH  14  25
ATOM     25  N   UNK A   6      -8.223  -2.429  16.646  0.00  0.00    +0.000 N 
ATOM     26  C   UNK A   6      -7.921  -3.350  17.545  0.00  0.00    +0.000 A 
ATOM     27  N   UNK A   6      -9.035  -3.713  18.160  0.00  0.00    +0.000 NA
ATOM     28  C   UNK A   6     -10.088  -3.009  17.630  0.00  0.00    +0.000 A 
ATOM     29  C   UNK A   6      -9.582  -2.192  16.673  0.00  0.00    +0.000 A 
BRANCH  29  30
ATOM     30  C   UNK A   6     -10.254  -1.201  15.768  0.00  0.00    +0.000 C 
BRANCH  30  31
ATOM     31  C   UNK A   6     -11.762  -1.447  15.589  0.00  0.00    +0.000 C 
BRANCH  31  32
ATOM     32  C   UNK A   6     -12.414  -0.230  14.942  0.00  0.00    +0.000 C 
ATOM     33  N   UNK A   4     -13.332   0.393  15.671  0.00  0.00    +0.000 N 
ATOM     34  H   UNK A   4     -13.582  -0.004  16.599  0.00  0.00    +0.000 HD
ATOM     35  O   UNK A   6     -12.086   0.127  13.818  0.00  0.00    +0.000 OA
BRANCH  33  36
ATOM     36  C   UNK A   4     -14.007   1.610  15.230  0.00  0.00    +0.000 C 
BRANCH  36  37
ATOM     37  C   UNK A   4     -13.414   2.790  16.003  0.00  0.00    +0.000 C 
ATOM     38  O   UNK A   4     -13.612   2.916  17.216  0.00  0.00    +0.000 OA
ATOM     39  N   VAL A   5     -12.674   3.633  15.294  0.00  0.00    +0.000 N 
ATOM     40  H   VAL A   5     -12.697   3.571  14.256  0.00  0.00    +0.000 HD
BRANCH  39  41
ATOM     41  CA  VAL A   5     -11.826   4.648  15.924  0.00  0.00    +0.000 C 
BRANCH  41  42
ATOM     42  C   VAL A   5     -12.530   5.999  15.968  0.00  0.00    +0.000 C 
ATOM     43  N   UNK A   6     -12.501   6.646  17.137  0.00  0.00    +0.000 N 
ATOM     44  H   UNK A   6     -11.946   6.247  17.921  0.00  0.00    +0.000 HD
ATOM     45  O   VAL A   5     -13.090   6.443  14.962  0.00  0.00    +0.000 OA
BRANCH  43  46
ATOM     46  C   UNK A   6     -13.225   7.894  17.346  0.00  0.00    +0.000 C 
BRANCH  46  47
ATOM     47  C   UNK A   6     -12.346   8.918  18.051  0.00  0.00    +0.000 C 
ATOM     48  O   UNK A   6     -11.566   8.560  18.923  0.00  0.00    +0.000 OA
ENDBRANCH  46  47
BRANCH  46  49
ATOM     49  C   UNK A   6     -14.470   7.677  18.216  0.00  0.00    +0.000 C 
BRANCH  49  50
ATOM     50  C   UNK A   6     -15.365   6.567  17.759  0.00  0.00    +0.000 A 
ATOM     51  N   UNK A   6     -15.082   5.240  17.992  0.00  0.00    +0.000 NA
ATOM     52  C   UNK A   6     -16.057   4.491  17.506  0.00  0.00    +0.000 A 
ATOM     53  N   UNK A   6     -16.971   5.289  16.980  0.00  0.00    +0.000 NA
ATOM     54  C   UNK A   6     -16.563   6.592  17.132  0.00  0.00    +0.000 A 
ENDBRANCH  49  50
ENDBRANCH  46  49
ENDBRANCH  43  46
ENDBRANCH  41  42
BRANCH  41  55
ATOM     55  CB  VAL A   5     -10.447   4.747  15.225  0.00  0.00    +0.000 C 
ATOM     56  CG2 VAL A   5      -9.519   5.710  15.976  0.00  0.00    +0.000 C 
ATOM     57  CG1 VAL A   5      -9.815   3.379  15.130  0.00  0.00    +0.000 C 
ENDBRANCH  41  55
ENDBRANCH  39  41
ENDBRANCH  36  37
BRANCH  36  58
ATOM     58  C   UNK A   4     -15.505   1.498  15.473  0.00  0.00    +0.000 C 
BRANCH  58  59
ATOM     59  C   UNK A   4     -16.245   0.521  14.555  0.00  0.00    +0.000 C 
ATOM     60  C   UNK A   4     -17.211  -0.346  15.342  0.00  0.00    +0.000 C 
ATOM     61  C   UNK A   4     -16.973   1.311  13.436  0.00  0.00    +0.000 C 
ENDBRANCH  58  59
ENDBRANCH  36  58
ENDBRANCH  33  36
ENDBRANCH  31  32
BRANCH  31  62
ATOM     62  N   UNK A   6     -12.003  -2.666  14.832  0.00  0.00    +0.000 N 
ATOM     63  C   LEU A   2     -12.668  -3.700  15.347  0.00  0.00    +0.000 C 
ATOM     64  O   LEU A   2     -13.055  -3.742  16.516  0.00  0.00    +0.000 OA
ATOM     65  H   UNK A   6     -11.645  -2.733  13.858  0.00  0.00    +0.000 HD
BRANCH  63  66
ATOM     66  CA  LEU A   2     -12.922  -4.883  14.408  0.00  0.00    +0.000 C 
BRANCH  66  67
ATOM     67  N   LEU A   2     -12.550  -6.119  15.076  0.00  0.00    +0.000 N 
ATOM     68  H   LEU A   2     -13.263  -6.595  15.665  0.00  0.00    +0.000 HD
ATOM     69  C   GLU A   1     -11.346  -6.672  14.973  0.00  0.00    +0.000 C 
ATOM     70  O   GLU A   1     -10.470  -6.272  14.202  0.00  0.00    +0.000 OA
BRANCH  69  71
ATOM     71  CA  GLU A   1     -11.116  -7.905  15.843  0.00  0.00    +0.000 C 
BRANCH  71  72
ATOM     72  N   GLU A   1     -10.598  -8.962  14.988  0.00  0.00    +0.000 NA
ATOM     73  H   GLU A   1      -9.956  -8.707  14.211  0.00  0.00    +0.000 HD
ENDBRANCH  71  72
BRANCH  71  74
ATOM     74  CB  GLU A   1     -10.138  -7.606  16.985  0.00  0.00    +0.000 C 
BRANCH  74  75
ATOM     75  CG  GLU A   1     -10.687  -6.711  18.113  0.00  0.00    +0.000 C 
BRANCH  75  76
ATOM     76  CD  GLU A   1      -9.750  -6.637  19.314  0.00  0.00    +0.000 C 
ATOM     77  OE2 GLU A   1      -9.722  -5.588  20.007  0.00  0.00    +0.000 OA
ATOM     78  OE1 GLU A   1      -9.041  -7.627  19.570  0.00  0.00    +0.000 OA
ENDBRANCH  75  76
ENDBRANCH  74  75
ENDBRANCH  71  74
ENDBRANCH  69  71
ENDBRANCH  66  67
BRANCH  66  79
ATOM     79  CB  LEU A   2     -14.407  -4.936  14.004  0.00  0.00    +0.000 C 
BRANCH  79  80
ATOM     80  CG  LEU A   2     -15.138  -3.633  13.680  0.00  0.00    +0.000 C 
ATOM     81  CD2 LEU A   2     -16.629  -3.918  13.468  0.00  0.00    +0.000 C 
ATOM     82  CD1 LEU A   2     -14.528  -2.956  12.472  0.00  0.00    +0.000 C 
ENDBRANCH  79  80
ENDBRANCH  66  79
ENDBRANCH  63  66
ENDBRANCH  31  62
ENDBRANCH  30  31
ENDBRANCH  29  30
ENDBRANCH  14  25
BRANCH   1  84
ATOM     83  C   UNK A   3     -11.601   0.554  10.270  0.00  0.00    +0.000 C 
ATOM     84  N   UNK A   4     -11.097  -0.477  10.941  0.00  0.00    +0.000 N 
ATOM     85  H   UNK A   4     -11.382  -0.607  11.933  0.00  0.00    +0.000 HD
ATOM     86  O   UNK A   3     -11.292   0.809   9.105  0.00  0.00    +0.000 OA
BRANCH  83  87
ATOM     87  C   UNK A   3     -12.558   1.462  11.057  0.00  0.00    +0.000 C 
BRANCH  87  90
ATOM     88  C   LEU A   2     -12.616   3.887  11.169  0.00  0.00    +0.000 C 
ATOM     89  O   LEU A   2     -12.750   3.902  12.381  0.00  0.00    +0.000 OA
ATOM     90  N   UNK A   3     -12.705   2.773  10.437  0.00  0.00    +0.000 N 
ATOM     91  H   UNK A   3     -12.881   2.842   9.414  0.00  0.00    +0.000 HD
BRANCH  88  92
ATOM     92  CA  LEU A   2     -12.366   5.185  10.415  0.00  0.00    +0.000 C 
BRANCH  92  94
ATOM     93  C   GLU A   1     -12.742   7.583  10.720  0.00  0.00    +0.000 C 
ATOM     94  N   LEU A   2     -12.627   6.363  11.244  0.00  0.00    +0.000 N 
ATOM     95  H   LEU A   2     -12.726   6.244  12.272  0.00  0.00    +0.000 HD
ATOM     96  O   GLU A   1     -12.647   7.796   9.519  0.00  0.00    +0.000 OA
BRANCH  93  97
ATOM     97  CA  GLU A   1     -13.022   8.737  11.698  0.00  0.00    +0.000 C 
BRANCH  97  98
ATOM     98  CB  GLU A   1     -11.693   9.355  12.255  0.00  0.00    +0.000 C 
ATOM     99  CG2 GLU A   1     -11.056   8.464  13.321  0.00  0.00    +0.000 C 
BRANCH  98 100
ATOM    100  CG1 GLU A   1     -10.705   9.691  11.118  0.00  0.00    +0.000 C 
ATOM    101  CD1 GLU A   1      -9.639  10.720  11.520  0.00  0.00    +0.000 C 
ENDBRANCH  98 100
ENDBRANCH  97  98
BRANCH  97 102
ATOM    102  N   GLU A   1     -13.929   8.341  12.774  0.00  0.00    +0.000 NA
ATOM    103  H   GLU A   1     -13.582   7.688  13.505  0.00  0.00    +0.000 HD
ENDBRANCH  97 102
ENDBRANCH  93  97
ENDBRANCH  92  94
BRANCH  92 104
ATOM    104  CB  LEU A   2     -10.920   5.199   9.903  0.00  0.00    +0.000 C 
BRANCH 104 105
ATOM    105  CG  LEU A   2      -9.852   5.269  10.999  0.00  0.00    +0.000 C 
BRANCH 105 106
ATOM    106  CD  LEU A   2      -9.056   3.974  11.165  0.00  0.00    +0.000 C 
ATOM    107  OE1 LEU A   2      -9.613   2.897  11.368  0.00  0.00    +0.000 OA
ATOM    108  NE2 LEU A   2      -7.740   4.091  11.098  0.00  0.00    +0.000 N 
ATOM    109 HE21 LEU A   2      -7.137   3.253  11.219  0.00  0.00    +0.000 HD
ATOM    110 HE22 LEU A   2      -7.309   5.021  10.924  0.00  0.00    +0.000 HD
ENDBRANCH 105 106
ENDBRANCH 104 105
ENDBRANCH  92 104
ENDBRANCH  88  92
ENDBRANCH  87  90
BRANCH  87 111
ATOM    111  C   UNK A   3     -13.916   0.801  11.357  0.00  0.00    +0.000 C 
BRANCH 111 112
ATOM    112  C   UNK A   3     -14.673   0.367  10.138  0.00  0.00    +0.000 A 
ATOM    113  C   UNK A   3     -15.793   1.075   9.718  0.00  0.00    +0.000 A 
ATOM    114  C   UNK A   3     -16.504   0.675   8.600  0.00  0.00    +0.000 A 
ATOM    115  C   UNK A   3     -16.098  -0.442   7.877  0.00  0.00    +0.000 A 
ATOM    116  C   UNK A   3     -14.982  -1.168   8.288  0.00  0.00    +0.000 A 
ATOM    117  C   UNK A   3     -14.283  -0.760   9.421  0.00  0.00    +0.000 A 
ENDBRANCH 111 112
ENDBRANCH  87 111
ENDBRANCH  83  87
ENDBRANCH   1  84
BRANCH   9 118
ATOM    118  C   UNK A   6      -7.283  -8.665  12.615  0.00  0.00    +0.000 C 
ATOM    119  O   UNK A   6      -8.323  -9.039  13.159  0.00  0.00    +0.000 OA
ENDBRANCH   9 118
BRANCH   5 120
ATOM    120  CB  VAL A   5     -10.348  -6.104  10.579  0.00  0.00    +0.000 C 
BRANCH 120 121
ATOM    121  CG  VAL A   5     -11.776  -5.777  10.206  0.00  0.00    +0.000 A 
ATOM    122  CD2 VAL A   5     -12.839  -6.414  10.845  0.00  0.00    +0.000 A 
ATOM    123  CE2 VAL A   5     -14.155  -6.142  10.492  0.00  0.00    +0.000 A 
ATOM    124  CZ  VAL A   5     -14.427  -5.228   9.461  0.00  0.00    +0.000 A 
ATOM    125  CE1 VAL A   5     -13.374  -4.598   8.804  0.00  0.00    +0.000 A 
ATOM    126  CD1 VAL A   5     -12.057  -4.885   9.167  0.00  0.00    +0.000 A 
ENDBRANCH 120 121
ENDBRANCH   5 120
TORSDOF 42
REMARK  Name = ../refined-set-2016/3dd8/3dd8_pocket.pdb
REMARK  158 active torsions:
REMARK  status: ('A' for Active; 'I' for Inactive)
REMARK    1  A    between atoms: _1  and  _3
REMARK    2  A    between atoms: _3  and  _4
REMARK    3  A    between atoms: _3  and  _6
REMARK    4  A    between atoms: _6  and  _7
REMARK    5  A    between atoms: _17  and  _19
REMARK    6  A    between atoms: _19  and  _20
REMARK    7  A    between atoms: _19  and  _22
REMARK    8  A    between atoms: _22  and  _23
REMARK    9  A    between atoms: _28  and  _29
REMARK   10  A    between atoms: _31  and  _33
REMARK   11  A    between atoms: _33  and  _34
REMARK   12  A    between atoms: _33  and  _36
REMARK   13  A    between atoms: _36  and  _37
REMARK   14  A    between atoms: _43  and  _45
REMARK   15  A    between atoms: _45  and  _46
REMARK   16  A    between atoms: _45  and  _48
REMARK   17  A    between atoms: _48  and  _49
REMARK   18  A    between atoms: _52  and  _53
REMARK   19  A    between atoms: _58  and  _60
REMARK   20  A    between atoms: _60  and  _61
REMARK   21  A    between atoms: _60  and  _63
REMARK   22  A    between atoms: _63  and  _64
REMARK   23  A    between atoms: _69  and  _71
REMARK   24  A    between atoms: _71  and  _72
REMARK   25  A    between atoms: _71  and  _74
REMARK   26  A    between atoms: _74  and  _75
REMARK   27  A    between atoms: _80  and  _82
REMARK   28  A    between atoms: _82  and  _83
REMARK   29  A    between atoms: _82  and  _85
REMARK   30  A    between atoms: _85  and  _86
REMARK   31  A    between atoms: _91  and  _93
REMARK   32  A    between atoms: _93  and  _94
REMARK   33  A    between atoms: _93  and  _96
REMARK   34  A    between atoms: _96  and  _97
REMARK   35  A    between atoms: _100  and  _102
REMARK   36  A    between atoms: _102  and  _103
REMARK   37  A    between atoms: _102  and  _105
REMARK   38  A    between atoms: _105  and  _106
REMARK   39  A    between atoms: _106  and  _107
REMARK   40  A    between atoms: _112  and  _114
REMARK   41  A    between atoms: _114  and  _115
REMARK   42  A    between atoms: _114  and  _117
REMARK   43  A    between atoms: _117  and  _118
REMARK   44  A    between atoms: _124  and  _126
REMARK   45  A    between atoms: _137  and  _140
REMARK   46  A    between atoms: _140  and  _141
REMARK   47  A    between atoms: _149  and  _150
REMARK   48  A    between atoms: _158  and  _160
REMARK   49  A    between atoms: _160  and  _161
REMARK   50  A    between atoms: _160  and  _163
REMARK   51  A    between atoms: _163  and  _164
REMARK   52  A    between atoms: _164  and  _165
REMARK   53  A    between atoms: _168  and  _170
REMARK   54  A    between atoms: _170  and  _171
REMARK   55  A    between atoms: _170  and  _173
REMARK   56  A    between atoms: _173  and  _174
REMARK   57  A    between atoms: _179  and  _181
REMARK   58  A    between atoms: _181  and  _182
REMARK   59  A    between atoms: _181  and  _184
REMARK   60  A    between atoms: _184  and  _185
REMARK   61  A    between atoms: _185  and  _186
REMARK   62  A    between atoms: _189  and  _191
REMARK   63  A    between atoms: _191  and  _192
REMARK   64  A    between atoms: _191  and  _194
REMARK   65  A    between atoms: _194  and  _195
REMARK   66  A    between atoms: _198  and  _200
REMARK   67  A    between atoms: _200  and  _201
REMARK   68  A    between atoms: _200  and  _203
REMARK   69  A    between atoms: _203  and  _204
REMARK   70  A    between atoms: _205  and  ZN_443
REMARK   71  A    between atoms: _209  and  _211
REMARK   72  A    between atoms: _211  and  _212
REMARK   73  A    between atoms: _211  and  _214
REMARK   74  A    between atoms: _214  and  _215
REMARK   75  A    between atoms: _218  and  _220
REMARK   76  A    between atoms: _220  and  _221
REMARK   77  A    between atoms: _220  and  _223
REMARK   78  A    between atoms: _226  and  _228
REMARK   79  A    between atoms: _228  and  _229
REMARK   80  A    between atoms: _228  and  _231
REMARK   81  A    between atoms: _231  and  _232
REMARK   82  A    between atoms: _237  and  _239
REMARK   83  A    between atoms: _239  and  _240
REMARK   84  A    between atoms: _239  and  _242
REMARK   85  A    between atoms: _242  and  _243
REMARK   86  A    between atoms: _249  and  _251
REMARK   87  A    between atoms: _251  and  _252
REMARK   88  A    between atoms: _254  and  _256
REMARK   89  A    between atoms: _256  and  _257
REMARK   90  A    between atoms: _260  and  _262
REMARK   91  A    between atoms: _262  and  _263
REMARK   92  A    between atoms: _262  and  _265
REMARK   93  A    between atoms: _268  and  _270
REMARK   94  A    between atoms: _270  and  _271
REMARK   95  A    between atoms: _270  and  _273
REMARK   96  A    between atoms: _273  and  _274
REMARK   97  A    between atoms: _274  and  _275
REMARK   98  A    between atoms: _280  and  _282
REMARK   99  A    between atoms: _282  and  _283
REMARK  100  A    between atoms: _282  and  _285
REMARK  101  A    between atoms: _285  and  _286
REMARK  102  A    between atoms: _289  and  _291
REMARK  103  A    between atoms: _291  and  _292
REMARK  104  A    between atoms: _295  and  _297
REMARK  105  A    between atoms: _297  and  _298
REMARK  106  A    between atoms: _297  and  _300
REMARK  107  A    between atoms: _303  and  _305
REMARK  108  A    between atoms: _305  and  _306
REMARK  109  A    between atoms: _305  and  _308
REMARK  110  A    between atoms: _308  and  _309
REMARK  111  A    between atoms: _312  and  _314
REMARK  112  A    between atoms: _314  and  _315
REMARK  113  A    between atoms: _317  and  _319
REMARK  114  A    between atoms: _319  and  _320
REMARK  115  A    between atoms: _319  and  _322
REMARK  116  A    between atoms: _322  and  _323
REMARK  117  A    between atoms: _325  and  _327
REMARK  118  A    between atoms: _327  and  _328
REMARK  119  A    between atoms: _327  and  _330
REMARK  120  A    between atoms: _330  and  _331
REMARK  121  A    between atoms: _334  and  _336
REMARK  122  A    between atoms: _336  and  _337
REMARK  123  A    between atoms: _336  and  _339
REMARK  124  A    between atoms: _339  and  _340
REMARK  125  A    between atoms: _343  and  _345
REMARK  126  A    between atoms: _345  and  _346
REMARK  127  A    between atoms: _345  and  _348
REMARK  128  A    between atoms: _348  and  _349
REMARK  129  A    between atoms: _353  and  _354
REMARK  130  A    between atoms: _360  and  _361
REMARK  131  A    between atoms: _366  and  _368
REMARK  132  A    between atoms: _368  and  _369
REMARK  133  A    between atoms: _368  and  _371
REMARK  134  A    between atoms: _371  and  _372
REMARK  135  A    between atoms: _375  and  _377
REMARK  136  A    between atoms: _377  and  _378
REMARK  137  A    between atoms: _377  and  _380
REMARK  138  A    between atoms: _380  and  _381
REMARK  139  A    between atoms: _384  and  _386
REMARK  140  A    between atoms: _386  and  _387
REMARK  141  A    between atoms: _386  and  _389
REMARK  142  A    between atoms: _391  and  _393
REMARK  143  A    between atoms: _393  and  _394
REMARK  144  A    between atoms: _393  and  _396
REMARK  145  A    between atoms: _399  and  _401
REMARK  146  A    between atoms: _401  and  _402
REMARK  147  A    between atoms: _401  and  _404
REMARK  148  A    between atoms: _404  and  _405
REMARK  149  A    between atoms: _415  and  _417
REMARK  150  A    between atoms: _417  and  _418
REMARK  151  A    between atoms: _417  and  _420
REMARK  152  A    between atoms: _420  and  _421
REMARK  153  A    between atoms: _426  and  _428
REMARK  154  A    between atoms: _428  and  _429
REMARK  155  A    between atoms: _428  and  _431
REMARK  156  A    between atoms: _431  and  _432
REMARK  157  A    between atoms: _432  and  _433
REMARK  158  A    between atoms: _433  and  _434
REMARK                            x       y       z     vdW  Elec       q    Type
REMARK                         _______ _______ _______ _____ _____    ______ ____
ROOT
ATOM      1  C   GLU A   1      -5.907  -8.338  21.122  0.00  0.00    +0.238 C 
ATOM      2  O   GLU A   1      -5.085  -8.851  21.888  0.00  0.00    -0.274 OA
ATOM      3  N   HIS A   2      -7.102  -7.928  21.529  0.00  0.00    -0.298 N 
ATOM      4  H   HIS A   2      -7.705  -7.372  20.889  0.00  0.00    +0.150 HD
ENDROOT
BRANCH   1   5
ATOM      5  CA  GLU A   1      -5.597  -8.166  19.636  0.00  0.00    +0.145 C 
BRANCH   5   6
ATOM      6  N   GLU A   1      -6.599  -8.850  18.840  0.00  0.00    -0.238 NA
ATOM      7  H   GLU A   1      -7.455  -8.328  18.564  0.00  0.00    +0.142 HD
ENDBRANCH   5   6
BRANCH   5   8
ATOM      8  CB  GLU A   1      -5.551  -6.689  19.232  0.00  0.00    +0.038 C 
BRANCH   8   9
ATOM      9  CG  GLU A   1      -4.998  -6.479  17.821  0.00  0.00    +0.116 C 
BRANCH   9  10
ATOM     10  CD  GLU A   1      -4.352  -5.132  17.631  0.00  0.00    +0.365 C 
ATOM     11  OE2 GLU A   1      -4.986  -4.112  17.937  0.00  0.00    -0.246 OA
ATOM     12  OE1 GLU A   1      -3.203  -5.092  17.161  0.00  0.00    -0.246 OA
ENDBRANCH   9  10
ENDBRANCH   8   9
ENDBRANCH   5   8
ENDBRANCH   1   5
BRANCH   3  13
ATOM     13  CA  HIS A   2      -7.571  -8.253  22.866  0.00  0.00    +0.143 C 
BRANCH  13  14
ATOM     14  C   HIS A   2      -7.901  -9.720  22.939  0.00  0.00    +0.227 C 
ATOM     15  O   HIS A   2      -8.264 -10.338  21.923  0.00  0.00    -0.286 OA
ENDBRANCH  13  14
BRANCH  13  16
ATOM     16  CB  HIS A   2      -8.775  -7.392  23.257  0.00  0.00    +0.075 C 
BRANCH  16  17
ATOM     17  CG  HIS A   2      -8.445  -5.943  23.376  0.00  0.00    +0.082 A 
ATOM     18  CD2 HIS A   2      -7.988  -5.218  24.424  0.00  0.00    +0.115 A 
ATOM     19  NE2 HIS A   2      -7.814  -3.932  23.978  0.00  0.00    -0.221 NA
ATOM     20  CE1 HIS A   2      -8.147  -3.870  22.702  0.00  0.00    +0.199 A 
ATOM     21  ND1 HIS A   2      -8.539  -5.070  22.313  0.00  0.00    -0.227 NA
ENDBRANCH  16  17
ENDBRANCH  13  16
ENDBRANCH   3  13
TORSDOF 9
REMARK  Name = ../refined-set-2016/3dd8/3dd8_pocket.pdb
REMARK  158 active torsions:
REMARK  status: ('A' for Active; 'I' for Inactive)
REMARK    1  A    between atoms: _1  and  _3
REMARK    2  A    between atoms: _3  and  _4
REMARK    3  A    between atoms: _3  and  _6
REMARK    4  A    between atoms: _6  and  _7
REMARK    5  A    between atoms: _17  and  _19
REMARK    6  A    between atoms: _19  and  _20
REMARK    7  A    between atoms: _19  and  _22
REMARK    8  A    between atoms: _22  and  _23
REMARK    9  A    between atoms: _28  and  _29
REMARK   10  A    between atoms: _31  and  _33
REMARK   11  A    between atoms: _33  and  _34
REMARK   12  A    between atoms: _33  and  _36
REMARK   13  A    between atoms: _36  and  _37
REMARK   14  A    between atoms: _43  and  _45
REMARK   15  A    between atoms: _45  and  _46
REMARK   16  A    between atoms: _45  and  _48
REMARK   17  A    between atoms: _48  and  _49
REMARK   18  A    between atoms: _52  and  _53
REMARK   19  A    between atoms: _58  and  _60
REMARK   20  A    between atoms: _60  and  _61
REMARK   21  A    between atoms: _60  and  _63
REMARK   22  A    between atoms: _63  and  _64
REMARK   23  A    between atoms: _69  and  _71
REMARK   24  A    between atoms: _71  and  _72
REMARK   25  A    between atoms: _71  and  _74
REMARK   26  A    between atoms: _74  and  _75
REMARK   27  A    between atoms: _80  and  _82
REMARK   28  A    between atoms: _82  and  _83
REMARK   29  A    between atoms: _82  and  _85
REMARK   30  A    between atoms: _85  and  _86
REMARK   31  A    between atoms: _91  and  _93
REMARK   32  A    between atoms: _93  and  _94
REMARK   33  A    between atoms: _93  and  _96
REMARK   34  A    between atoms: _96  and  _97
REMARK   35  A    between atoms: _100  and  _102
REMARK   36  A    between atoms: _102  and  _103
REMARK   37  A    between atoms: _102  and  _105
REMARK   38  A    between atoms: _105  and  _106
REMARK   39  A    between atoms: _106  and  _107
REMARK   40  A    between atoms: _112  and  _114
REMARK   41  A    between atoms: _114  and  _115
REMARK   42  A    between atoms: _114  and  _117
REMARK   43  A    between atoms: _117  and  _118
REMARK   44  A    between atoms: _124  and  _126
REMARK   45  A    between atoms: _137  and  _140
REMARK   46  A    between atoms: _140  and  _141
REMARK   47  A    between atoms: _149  and  _150
REMARK   48  A    between atoms: _158  and  _160
REMARK   49  A    between atoms: _160  and  _161
REMARK   50  A    between atoms: _160  and  _163
REMARK   51  A    between atoms: _163  and  _164
REMARK   52  A    between atoms: _164  and  _165
REMARK   53  A    between atoms: _168  and  _170
REMARK   54  A    between atoms: _170  and  _171
REMARK   55  A    between atoms: _170  and  _173
REMARK   56  A    between atoms: _173  and  _174
REMARK   57  A    between atoms: _179  and  _181
REMARK   58  A    between atoms: _181  and  _182
REMARK   59  A    between atoms: _181  and  _184
REMARK   60  A    between atoms: _184  and  _185
REMARK   61  A    between atoms: _185  and  _186
REMARK   62  A    between atoms: _189  and  _191
REMARK   63  A    between atoms: _191  and  _192
REMARK   64  A    between atoms: _191  and  _194
REMARK   65  A    between atoms: _194  and  _195
REMARK   66  A    between atoms: _198  and  _200
REMARK   67  A    between atoms: _200  and  _201
REMARK   68  A    between atoms: _200  and  _203
REMARK   69  A    between atoms: _203  and  _204
REMARK   70  A    between atoms: _205  and  ZN_443
REMARK   71  A    between atoms: _209  and  _211
REMARK   72  A    between atoms: _211  and  _212
REMARK   73  A    between atoms: _211  and  _214
REMARK   74  A    between atoms: _214  and  _215
REMARK   75  A    between atoms: _218  and  _220
REMARK   76  A    between atoms: _220  and  _221
REMARK   77  A    between atoms: _220  and  _223
REMARK   78  A    between atoms: _226  and  _228
REMARK   79  A    between atoms: _228  and  _229
REMARK   80  A    between atoms: _228  and  _231
REMARK   81  A    between atoms: _231  and  _232
REMARK   82  A    between atoms: _237  and  _239
REMARK   83  A    between atoms: _239  and  _240
REMARK   84  A    between atoms: _239  and  _242
REMARK   85  A    between atoms: _242  and  _243
REMARK   86  A    between atoms: _249  and  _251
REMARK   87  A    between atoms: _251  and  _252
REMARK   88  A    between atoms: _254  and  _256
REMARK   89  A    between atoms: _256  and  _257
REMARK   90  A    between atoms: _260  and  _262
REMARK   91  A    between atoms: _262  and  _263
REMARK   92  A    between atoms: _262  and  _265
REMARK   93  A    between atoms: _268  and  _270
REMARK   94  A    between atoms: _270  and  _271
REMARK   95  A    between atoms: _270  and  _273
REMARK   96  A    between atoms: _273  and  _274
REMARK   97  A    between atoms: _274  and  _275
REMARK   98  A    between atoms: _280  and  _282
REMARK   99  A    between atoms: _282  and  _283
REMARK  100  A    between atoms: _282  and  _285
REMARK  101  A    between atoms: _285  and  _286
REMARK  102  A    between atoms: _289  and  _291
REMARK  103  A    between atoms: _291  and  _292
REMARK  104  A    between atoms: _295  and  _297
REMARK  105  A    between atoms: _297  and  _298
REMARK  106  A    between atoms: _297  and  _300
REMARK  107  A    between atoms: _303  and  _305
REMARK  108  A    between atoms: _305  and  _306
REMARK  109  A    between atoms: _305  and  _308
REMARK  110  A    between atoms: _308  and  _309
REMARK  111  A    between atoms: _312  and  _314
REMARK  112  A    between atoms: _314  and  _315
REMARK  113  A    between atoms: _317  and  _319
REMARK  114  A    between atoms: _319  and  _320
REMARK  115  A    between atoms: _319  and  _322
REMARK  116  A    between atoms: _322  and  _323
REMARK  117  A    between atoms: _325  and  _327
REMARK  118  A    between atoms: _327  and  _328
REMARK  119  A    between atoms: _327  and  _330
REMARK  120  A    between atoms: _330  and  _331
REMARK  121  A    between atoms: _334  and  _336
REMARK  122  A    between atoms: _336  and  _337
REMARK  123  A    between atoms: _336  and  _339
REMARK  124  A    between atoms: _339  and  _340
REMARK  125  A    between atoms: _343  and  _345
REMARK  126  A    between atoms: _345  and  _346
REMARK  127  A    between atoms: _345  and  _348
REMARK  128  A    between atoms: _348  and  _349
REMARK  129  A    between atoms: _353  and  _354
REMARK  130  A    between atoms: _360  and  _361
REMARK  131  A    between atoms: _366  and  _368
REMARK  132  A    between atoms: _368  and  _369
REMARK  133  A    between atoms: _368  and  _371
REMARK  134  A    between atoms: _371  and  _372
REMARK  135  A    between atoms: _375  and  _377
REMARK  136  A    between atoms: _377  and  _378
REMARK  137  A    between atoms: _377  and  _380
REMARK  138  A    between atoms: _380  and  _381
REMARK  139  A    between atoms: _384  and  _386
REMARK  140  A    between atoms: _386  and  _387
REMARK  141  A    between atoms: _386  and  _389
REMARK  142  A    between atoms: _391  and  _393
REMARK  143  A    between atoms: _393  and  _394
REMARK  144  A    between atoms: _393  and  _396
REMARK  145  A    between atoms: _399  and  _401
REMARK  146  A    between atoms: _401  and  _402
REMARK  147  A    between atoms: _401  and  _404
REMARK  148  A    between atoms: _404  and  _405
REMARK  149  A    between atoms: _415  and  _417
REMARK  150  A    between atoms: _417  and  _418
REMARK  151  A    between atoms: _417  and  _420
REMARK  152  A    between atoms: _420  and  _421
REMARK  153  A    between atoms: _426  and  _428
REMARK  154  A    between atoms: _428  and  _429
REMARK  155  A    between atoms: _428  and  _431
REMARK  156  A    between atoms: _431  and  _432
REMARK  157  A    between atoms: _432  and  _433
REMARK  158  A    between atoms: _433  and  _434
REMARK                            x       y       z     vdW  Elec       q    Type
REMARK                         _______ _______ _______ _____ _____    ______ ____
ROOT
ATOM      1  CA  PHE A   1      -7.590  13.969  15.217  0.00  0.00    +0.149 C 
ENDROOT
BRANCH   1   2
ATOM      2  C   PHE A   1      -6.134  14.082  15.673  0.00  0.00    +0.239 C 
ATOM      3  O   PHE A   1      -5.732  13.447  16.651  0.00  0.00    -0.274 OA
ATOM      4  N   GLY A   2      -5.356  14.890  14.953  0.00  0.00    -0.297 N 
ATOM      5  H   GLY A   2      -5.774  15.402  14.150  0.00  0.00    +0.150 HD
BRANCH   4   6
ATOM      6  CA  GLY A   2      -3.937  15.083  15.250  0.00  0.00    +0.163 C 
BRANCH   6   7
ATOM      7  C   GLY A   2      -3.668  15.713  16.602  0.00  0.00    +0.229 C 
ATOM      8  O   GLY A   2      -2.681  15.397  17.237  0.00  0.00    -0.286 OA
ENDBRANCH   6   7
ENDBRANCH   4   6
ENDBRANCH   1   2
BRANCH   1   9
ATOM      9  N   PHE A   1      -8.162  15.264  14.828  0.00  0.00    -0.238 NA
ATOM     10  H   PHE A   1      -8.513  15.382  13.856  0.00  0.00    +0.142 HD
ENDBRANCH   1   9
BRANCH   1  11
ATOM     11  CB  PHE A   1      -7.706  12.976  14.053  0.00  0.00    +0.053 C 
BRANCH  11  12
ATOM     12  CG  PHE A   1      -7.189  11.604  14.366  0.00  0.00    -0.020 A 
ATOM     13  CD2 PHE A   1      -8.008  10.665  14.985  0.00  0.00    -0.004 A 
ATOM     14  CE2 PHE A   1      -7.536   9.387  15.274  0.00  0.00    -0.000 A 
ATOM     15  CZ  PHE A   1      -6.240   9.034  14.939  0.00  0.00    -0.000 A 
ATOM     16  CE1 PHE A   1      -5.406   9.963  14.309  0.00  0.00    -0.000 A 
ATOM     17  CD1 PHE A   1      -5.890  11.237  14.021  0.00  0.00    -0.004 A 
ENDBRANCH  11  12
ENDBRANCH   1  11
TORSDOF 6
REMARK  Name = ../refined-set-2016/3dd8/3dd8_pocket.pdb
REMARK  158 active torsions:
REMARK  status: ('A' for Active; 'I' for Inactive)
REMARK    1  A    between atoms: _1  and  _3
REMARK    2  A    between atoms: _3  and  _4
REMARK    3  A    between atoms: _3  and  _6
REMARK    4  A    between atoms: _6  and  _7
REMARK    5  A    between atoms: _17  and  _19
REMARK    6  A    between atoms: _19  and  _20
REMARK    7  A    between atoms: _19  and  _22
REMARK    8  A    between atoms: _22  and  _23
REMARK    9  A    between atoms: _28  and  _29
REMARK   10  A    between atoms: _31  and  _33
REMARK   11  A    between atoms: _33  and  _34
REMARK   12  A    between atoms: _33  and  _36
REMARK   13  A    between atoms: _36  and  _37
REMARK   14  A    between atoms: _43  and  _45
REMARK   15  A    between atoms: _45  and  _46
REMARK   16  A    between atoms: _45  and  _48
REMARK   17  A    between atoms: _48  and  _49
REMARK   18  A    between atoms: _52  and  _53
REMARK   19  A    between atoms: _58  and  _60
REMARK   20  A    between atoms: _60  and  _61
REMARK   21  A    between atoms: _60  and  _63
REMARK   22  A    between atoms: _63  and  _64
REMARK   23  A    between atoms: _69  and  _71
REMARK   24  A    between atoms: _71  and  _72
REMARK   25  A    between atoms: _71  and  _74
REMARK   26  A    between atoms: _74  and  _75
REMARK   27  A    between atoms: _80  and  _82
REMARK   28  A    between atoms: _82  and  _83
REMARK   29  A    between atoms: _82  and  _85
REMARK   30  A    between atoms: _85  and  _86
REMARK   31  A    between atoms: _91  and  _93
REMARK   32  A    between atoms: _93  and  _94
REMARK   33  A    between atoms: _93  and  _96
REMARK   34  A    between atoms: _96  and  _97
REMARK   35  A    between atoms: _100  and  _102
REMARK   36  A    between atoms: _102  and  _103
REMARK   37  A    between atoms: _102  and  _105
REMARK   38  A    between atoms: _105  and  _106
REMARK   39  A    between atoms: _106  and  _107
REMARK   40  A    between atoms: _112  and  _114
REMARK   41  A    between atoms: _114  and  _115
REMARK   42  A    between atoms: _114  and  _117
REMARK   43  A    between atoms: _117  and  _118
REMARK   44  A    between atoms: _124  and  _126
REMARK   45  A    between atoms: _137  and  _140
REMARK   46  A    between atoms: _140  and  _141
REMARK   47  A    between atoms: _149  and  _150
REMARK   48  A    between atoms: _158  and  _160
REMARK   49  A    between atoms: _160  and  _161
REMARK   50  A    between atoms: _160  and  _163
REMARK   51  A    between atoms: _163  and  _164
REMARK   52  A    between atoms: _164  and  _165
REMARK   53  A    between atoms: _168  and  _170
REMARK   54  A    between atoms: _170  and  _171
REMARK   55  A    between atoms: _170  and  _173
REMARK   56  A    between atoms: _173  and  _174
REMARK   57  A    between atoms: _179  and  _181
REMARK   58  A    between atoms: _181  and  _182
REMARK   59  A    between atoms: _181  and  _184
REMARK   60  A    between atoms: _184  and  _185
REMARK   61  A    between atoms: _185  and  _186
REMARK   62  A    between atoms: _189  and  _191
REMARK   63  A    between atoms: _191  and  _192
REMARK   64  A    between atoms: _191  and  _194
REMARK   65  A    between atoms: _194  and  _195
REMARK   66  A    between atoms: _198  and  _200
REMARK   67  A    between atoms: _200  and  _201
REMARK   68  A    between atoms: _200  and  _203
REMARK   69  A    between atoms: _203  and  _204
REMARK   70  A    between atoms: _205  and  ZN_443
REMARK   71  A    between atoms: _209  and  _211
REMARK   72  A    between atoms: _211  and  _212
REMARK   73  A    between atoms: _211  and  _214
REMARK   74  A    between atoms: _214  and  _215
REMARK   75  A    between atoms: _218  and  _220
REMARK   76  A    between atoms: _220  and  _221
REMARK   77  A    between atoms: _220  and  _223
REMARK   78  A    between atoms: _226  and  _228
REMARK   79  A    between atoms: _228  and  _229
REMARK   80  A    between atoms: _228  and  _231
REMARK   81  A    between atoms: _231  and  _232
REMARK   82  A    between atoms: _237  and  _239
REMARK   83  A    between atoms: _239  and  _240
REMARK   84  A    between atoms: _239  and  _242
REMARK   85  A    between atoms: _242  and  _243
REMARK   86  A    between atoms: _249  and  _251
REMARK   87  A    between atoms: _251  and  _252
REMARK   88  A    between atoms: _254  and  _256
REMARK   89  A    between atoms: _256  and  _257
REMARK   90  A    between atoms: _260  and  _262
REMARK   91  A    between atoms: _262  and  _263
REMARK   92  A    between atoms: _262  and  _265
REMARK   93  A    between atoms: _268  and  _270
REMARK   94  A    between atoms: _270  and  _271
REMARK   95  A    between atoms: _270  and  _273
REMARK   96  A    between atoms: _273  and  _274
REMARK   97  A    between atoms: _274  and  _275
REMARK   98  A    between atoms: _280  and  _282
REMARK   99  A    between atoms: _282  and  _283
REMARK  100  A    between atoms: _282  and  _285
REMARK  101  A    between atoms: _285  and  _286
REMARK  102  A    between atoms: _289  and  _291
REMARK  103  A    between atoms: _291  and  _292
REMARK  104  A    between atoms: _295  and  _297
REMARK  105  A    between atoms: _297  and  _298
REMARK  106  A    between atoms: _297  and  _300
REMARK  107  A    between atoms: _303  and  _305
REMARK  108  A    between atoms: _305  and  _306
REMARK  109  A    between atoms: _305  and  _308
REMARK  110  A    between atoms: _308  and  _309
REMARK  111  A    between atoms: _312  and  _314
REMARK  112  A    between atoms: _314  and  _315
REMARK  113  A    between atoms: _317  and  _319
REMARK  114  A    between atoms: _319  and  _320
REMARK  115  A    between atoms: _319  and  _322
REMARK  116  A    between atoms: _322  and  _323
REMARK  117  A    between atoms: _325  and  _327
REMARK  118  A    between atoms: _327  and  _328
REMARK  119  A    between atoms: _327  and  _330
REMARK  120  A    between atoms: _330  and  _331
REMARK  121  A    between atoms: _334  and  _336
REMARK  122  A    between atoms: _336  and  _337
REMARK  123  A    between atoms: _336  and  _339
REMARK  124  A    between atoms: _339  and  _340
REMARK  125  A    between atoms: _343  and  _345
REMARK  126  A    between atoms: _345  and  _346
REMARK  127  A    between atoms: _345  and  _348
REMARK  128  A    between atoms: _348  and  _349
REMARK  129  A    between atoms: _353  and  _354
REMARK  130  A    between atoms: _360  and  _361
REMARK  131  A    between atoms: _366  and  _368
REMARK  132  A    between atoms: _368  and  _369
REMARK  133  A    between atoms: _368  and  _371
REMARK  134  A    between atoms: _371  and  _372
REMARK  135  A    between atoms: _375  and  _377
REMARK  136  A    between atoms: _377  and  _378
REMARK  137  A    between atoms: _377  and  _380
REMARK  138  A    between atoms: _380  and  _381
REMARK  139  A    between atoms: _384  and  _386
REMARK  140  A    between atoms: _386  and  _387
REMARK  141  A    between atoms: _386  and  _389
REMARK  142  A    between atoms: _391  and  _393
REMARK  143  A    between atoms: _393  and  _394
REMARK  144  A    between atoms: _393  and  _396
REMARK  145  A    between atoms: _399  and  _401
REMARK  146  A    between atoms: _401  and  _402
REMARK  147  A    between atoms: _401  and  _404
REMARK  148  A    between atoms: _404  and  _405
REMARK  149  A    between atoms: _415  and  _417
REMARK  150  A    between atoms: _417  and  _418
REMARK  151  A    between atoms: _417  and  _420
REMARK  152  A    between atoms: _420  and  _421
REMARK  153  A    between atoms: _426  and  _428
REMARK  154  A    between atoms: _428  and  _429
REMARK  155  A    between atoms: _428  and  _431
REMARK  156  A    between atoms: _431  and  _432
REMARK  157  A    between atoms: _432  and  _433
REMARK  158  A    between atoms: _433  and  _434
REMARK                            x       y       z     vdW  Elec       q    Type
REMARK                         _______ _______ _______ _____ _____    ______ ____
ROOT
ATOM      1  C   VAL A   2      -2.665  12.225  20.732  0.00  0.00    +0.241 C 
ATOM      2  O   VAL A   2      -1.873  11.397  21.164  0.00  0.00    -0.273 OA
ATOM      3  N   GLN A   3      -2.633  13.507  21.080  0.00  0.00    -0.298 N 
ATOM      4  H   GLN A   3      -3.332  14.152  20.659  0.00  0.00    +0.150 HD
ENDROOT
BRANCH   1   5
ATOM      5  CA  VAL A   2      -3.777  11.799  19.771  0.00  0.00    +0.148 C 
BRANCH   5   8
ATOM      6  C   ALA A   1      -5.548  13.344  20.440  0.00  0.00    +0.238 C 
ATOM      7  O   ALA A   1      -5.504  12.940  21.612  0.00  0.00    -0.274 OA
ATOM      8  N   VAL A   2      -4.747  12.865  19.485  0.00  0.00    -0.297 N 
ATOM      9  H   VAL A   2      -4.811  13.253  18.522  0.00  0.00    +0.150 HD
BRANCH   6  10
ATOM     10  CA  ALA A   1      -6.550  14.426  20.031  0.00  0.00    +0.145 C 
ATOM     11  CB  ALA A   1      -7.798  13.795  19.413  0.00  0.00    +0.028 C 
BRANCH  10  12
ATOM     12  N   ALA A   1      -5.982  15.428  19.117  0.00  0.00    -0.238 NA
ATOM     13  H   ALA A   1      -6.394  15.534  18.168  0.00  0.00    +0.142 HD
ENDBRANCH  10  12
ENDBRANCH   6  10
ENDBRANCH   5   8
BRANCH   5  14
ATOM     14  CB  VAL A   2      -3.197  11.119  18.485  0.00  0.00    +0.027 C 
ATOM     15  CG2 VAL A   2      -4.318  10.510  17.666  0.00  0.00    +0.002 C 
ATOM     16  CG1 VAL A   2      -2.391  12.087  17.636  0.00  0.00    +0.002 C 
ENDBRANCH   5  14
ENDBRANCH   1   5
BRANCH   3  17
ATOM     17  CA  GLN A   3      -1.663  14.053  22.025  0.00  0.00    +0.137 C 
BRANCH  17  18
ATOM     18  C   GLN A   3      -2.248  14.232  23.439  0.00  0.00    +0.227 C 
ATOM     19  O   GLN A   3      -1.682  14.936  24.289  0.00  0.00    -0.286 OA
ENDBRANCH  17  18
BRANCH  17  20
ATOM     20  CB  GLN A   3      -1.169  15.388  21.491  0.00  0.00    +0.037 C 
BRANCH  20  21
ATOM     21  CG  GLN A   3      -0.300  15.260  20.259  0.00  0.00    +0.087 C 
BRANCH  21  22
ATOM     22  CD  GLN A   3      -0.016  16.604  19.630  0.00  0.00    +0.219 C 
ATOM     23  NE2 GLN A   3       0.720  17.453  20.346  0.00  0.00    -0.329 N 
ATOM     24 HE21 GLN A   3       1.088  17.166  21.276  0.00  0.00    +0.145 HD
ATOM     25 HE22 GLN A   3       0.927  18.402  19.975  0.00  0.00    +0.145 HD
ATOM     26  OE1 GLN A   3      -0.476  16.892  18.524  0.00  0.00    -0.275 OA
ENDBRANCH  21  22
ENDBRANCH  20  21
ENDBRANCH  17  20
ENDBRANCH   3  17
TORSDOF 10
REMARK  Name = ../refined-set-2016/3dd8/3dd8_pocket.pdb
REMARK  158 active torsions:
REMARK  status: ('A' for Active; 'I' for Inactive)
REMARK    1  A    between atoms: _1  and  _3
REMARK    2  A    between atoms: _3  and  _4
REMARK    3  A    between atoms: _3  and  _6
REMARK    4  A    between atoms: _6  and  _7
REMARK    5  A    between atoms: _17  and  _19
REMARK    6  A    between atoms: _19  and  _20
REMARK    7  A    between atoms: _19  and  _22
REMARK    8  A    between atoms: _22  and  _23
REMARK    9  A    between atoms: _28  and  _29
REMARK   10  A    between atoms: _31  and  _33
REMARK   11  A    between atoms: _33  and  _34
REMARK   12  A    between atoms: _33  and  _36
REMARK   13  A    between atoms: _36  and  _37
REMARK   14  A    between atoms: _43  and  _45
REMARK   15  A    between atoms: _45  and  _46
REMARK   16  A    between atoms: _45  and  _48
REMARK   17  A    between atoms: _48  and  _49
REMARK   18  A    between atoms: _52  and  _53
REMARK   19  A    between atoms: _58  and  _60
REMARK   20  A    between atoms: _60  and  _61
REMARK   21  A    between atoms: _60  and  _63
REMARK   22  A    between atoms: _63  and  _64
REMARK   23  A    between atoms: _69  and  _71
REMARK   24  A    between atoms: _71  and  _72
REMARK   25  A    between atoms: _71  and  _74
REMARK   26  A    between atoms: _74  and  _75
REMARK   27  A    between atoms: _80  and  _82
REMARK   28  A    between atoms: _82  and  _83
REMARK   29  A    between atoms: _82  and  _85
REMARK   30  A    between atoms: _85  and  _86
REMARK   31  A    between atoms: _91  and  _93
REMARK   32  A    between atoms: _93  and  _94
REMARK   33  A    between atoms: _93  and  _96
REMARK   34  A    between atoms: _96  and  _97
REMARK   35  A    between atoms: _100  and  _102
REMARK   36  A    between atoms: _102  and  _103
REMARK   37  A    between atoms: _102  and  _105
REMARK   38  A    between atoms: _105  and  _106
REMARK   39  A    between atoms: _106  and  _107
REMARK   40  A    between atoms: _112  and  _114
REMARK   41  A    between atoms: _114  and  _115
REMARK   42  A    between atoms: _114  and  _117
REMARK   43  A    between atoms: _117  and  _118
REMARK   44  A    between atoms: _124  and  _126
REMARK   45  A    between atoms: _137  and  _140
REMARK   46  A    between atoms: _140  and  _141
REMARK   47  A    between atoms: _149  and  _150
REMARK   48  A    between atoms: _158  and  _160
REMARK   49  A    between atoms: _160  and  _161
REMARK   50  A    between atoms: _160  and  _163
REMARK   51  A    between atoms: _163  and  _164
REMARK   52  A    between atoms: _164  and  _165
REMARK   53  A    between atoms: _168  and  _170
REMARK   54  A    between atoms: _170  and  _171
REMARK   55  A    between atoms: _170  and  _173
REMARK   56  A    between atoms: _173  and  _174
REMARK   57  A    between atoms: _179  and  _181
REMARK   58  A    between atoms: _181  and  _182
REMARK   59  A    between atoms: _181  and  _184
REMARK   60  A    between atoms: _184  and  _185
REMARK   61  A    between atoms: _185  and  _186
REMARK   62  A    between atoms: _189  and  _191
REMARK   63  A    between atoms: _191  and  _192
REMARK   64  A    between atoms: _191  and  _194
REMARK   65  A    between atoms: _194  and  _195
REMARK   66  A    between atoms: _198  and  _200
REMARK   67  A    between atoms: _200  and  _201
REMARK   68  A    between atoms: _200  and  _203
REMARK   69  A    between atoms: _203  and  _204
REMARK   70  A    between atoms: _205  and  ZN_443
REMARK   71  A    between atoms: _209  and  _211
REMARK   72  A    between atoms: _211  and  _212
REMARK   73  A    between atoms: _211  and  _214
REMARK   74  A    between atoms: _214  and  _215
REMARK   75  A    between atoms: _218  and  _220
REMARK   76  A    between atoms: _220  and  _221
REMARK   77  A    between atoms: _220  and  _223
REMARK   78  A    between atoms: _226  and  _228
REMARK   79  A    between atoms: _228  and  _229
REMARK   80  A    between atoms: _228  and  _231
REMARK   81  A    between atoms: _231  and  _232
REMARK   82  A    between atoms: _237  and  _239
REMARK   83  A    between atoms: _239  and  _240
REMARK   84  A    between atoms: _239  and  _242
REMARK   85  A    between atoms: _242  and  _243
REMARK   86  A    between atoms: _249  and  _251
REMARK   87  A    between atoms: _251  and  _252
REMARK   88  A    between atoms: _254  and  _256
REMARK   89  A    between atoms: _256  and  _257
REMARK   90  A    between atoms: _260  and  _262
REMARK   91  A    between atoms: _262  and  _263
REMARK   92  A    between atoms: _262  and  _265
REMARK   93  A    between atoms: _268  and  _270
REMARK   94  A    between atoms: _270  and  _271
REMARK   95  A    between atoms: _270  and  _273
REMARK   96  A    between atoms: _273  and  _274
REMARK   97  A    between atoms: _274  and  _275
REMARK   98  A    between atoms: _280  and  _282
REMARK   99  A    between atoms: _282  and  _283
REMARK  100  A    between atoms: _282  and  _285
REMARK  101  A    between atoms: _285  and  _286
REMARK  102  A    between atoms: _289  and  _291
REMARK  103  A    between atoms: _291  and  _292
REMARK  104  A    between atoms: _295  and  _297
REMARK  105  A    between atoms: _297  and  _298
REMARK  106  A    between atoms: _297  and  _300
REMARK  107  A    between atoms: _303  and  _305
REMARK  108  A    between atoms: _305  and  _306
REMARK  109  A    between atoms: _305  and  _308
REMARK  110  A    between atoms: _308  and  _309
REMARK  111  A    between atoms: _312  and  _314
REMARK  112  A    between atoms: _314  and  _315
REMARK  113  A    between atoms: _317  and  _319
REMARK  114  A    between atoms: _319  and  _320
REMARK  115  A    between atoms: _319  and  _322
REMARK  116  A    between atoms: _322  and  _323
REMARK  117  A    between atoms: _325  and  _327
REMARK  118  A    between atoms: _327  and  _328
REMARK  119  A    between atoms: _327  and  _330
REMARK  120  A    between atoms: _330  and  _331
REMARK  121  A    between atoms: _334  and  _336
REMARK  122  A    between atoms: _336  and  _337
REMARK  123  A    between atoms: _336  and  _339
REMARK  124  A    between atoms: _339  and  _340
REMARK  125  A    between atoms: _343  and  _345
REMARK  126  A    between atoms: _345  and  _346
REMARK  127  A    between atoms: _345  and  _348
REMARK  128  A    between atoms: _348  and  _349
REMARK  129  A    between atoms: _353  and  _354
REMARK  130  A    between atoms: _360  and  _361
REMARK  131  A    between atoms: _366  and  _368
REMARK  132  A    between atoms: _368  and  _369
REMARK  133  A    between atoms: _368  and  _371
REMARK  134  A    between atoms: _371  and  _372
REMARK  135  A    between atoms: _375  and  _377
REMARK  136  A    between atoms: _377  and  _378
REMARK  137  A    between atoms: _377  and  _380
REMARK  138  A    between atoms: _380  and  _381
REMARK  139  A    between atoms: _384  and  _386
REMARK  140  A    between atoms: _386  and  _387
REMARK  141  A    between atoms: _386  and  _389
REMARK  142  A    between atoms: _391  and  _393
REMARK  143  A    between atoms: _393  and  _394
REMARK  144  A    between atoms: _393  and  _396
REMARK  145  A    between atoms: _399  and  _401
REMARK  146  A    between atoms: _401  and  _402
REMARK  147  A    between atoms: _401  and  _404
REMARK  148  A    between atoms: _404  and  _405
REMARK  149  A    between atoms: _415  and  _417
REMARK  150  A    between atoms: _417  and  _418
REMARK  151  A    between atoms: _417  and  _420
REMARK  152  A    between atoms: _420  and  _421
REMARK  153  A    between atoms: _426  and  _428
REMARK  154  A    between atoms: _428  and  _429
REMARK  155  A    between atoms: _428  and  _431
REMARK  156  A    between atoms: _431  and  _432
REMARK  157  A    between atoms: _432  and  _433
REMARK  158  A    between atoms: _433  and  _434
REMARK                            x       y       z     vdW  Elec       q    Type
REMARK                         _______ _______ _______ _____ _____    ______ ____
ROOT
ATOM      1  C   ALA A   2     -12.208   5.059  20.873  0.00  0.00    +0.241 C 
ATOM      2  N   VAL A   3     -11.750   3.843  21.124  0.00  0.00    -0.297 N 
ATOM      3  H   VAL A   3     -11.310   3.639  22.044  0.00  0.00    +0.150 HD
ATOM      4  O   ALA A   2     -12.639   5.405  19.762  0.00  0.00    -0.273 OA
ENDROOT
BRANCH   1   5
ATOM      5  CA  ALA A   2     -12.118   6.053  22.015  0.00  0.00    +0.149 C 
ATOM      6  CB  ALA A   2     -13.505   6.495  22.420  0.00  0.00    +0.031 C 
BRANCH   5   9
ATOM      7  C   LEU A   1     -10.361   7.778  22.265  0.00  0.00    +0.238 C 
ATOM      8  O   LEU A   1     -10.126   7.536  23.453  0.00  0.00    -0.274 OA
ATOM      9  N   ALA A   2     -11.319   7.183  21.544  0.00  0.00    -0.297 N 
ATOM     10  H   ALA A   2     -11.507   7.548  20.588  0.00  0.00    +0.150 HD
BRANCH   7  11
ATOM     11  CA  LEU A   1      -9.509   8.759  21.481  0.00  0.00    +0.145 C 
BRANCH  11  12
ATOM     12  N   LEU A   1      -8.772   9.728  22.313  0.00  0.00    -0.238 NA
ATOM     13  H   LEU A   1      -8.114   9.389  23.043  0.00  0.00    +0.142 HD
ENDBRANCH  11  12
BRANCH  11  14
ATOM     14  CB  LEU A   1      -8.559   7.946  20.577  0.00  0.00    +0.026 C 
BRANCH  14  15
ATOM     15  CG  LEU A   1      -7.581   8.616  19.605  0.00  0.00    +0.002 C 
ATOM     16  CD2 LEU A   1      -8.259   9.652  18.760  0.00  0.00    +0.000 C 
ATOM     17  CD1 LEU A   1      -6.962   7.541  18.732  0.00  0.00    +0.000 C 
ENDBRANCH  14  15
ENDBRANCH  11  14
ENDBRANCH   7  11
ENDBRANCH   5   9
ENDBRANCH   1   5
BRANCH   2  18
ATOM     18  CA  VAL A   3     -11.856   2.782  20.123  0.00  0.00    +0.149 C 
BRANCH  18  19
ATOM     19  C   VAL A   3     -12.833   1.739  20.634  0.00  0.00    +0.241 C 
ATOM     20  O   VAL A   3     -12.668   1.195  21.729  0.00  0.00    -0.273 OA
ATOM     21  N   LEU A   4     -13.870   1.504  19.831  0.00  0.00    -0.298 N 
ATOM     22  H   LEU A   4     -13.976   2.091  18.979  0.00  0.00    +0.150 HD
BRANCH  21  23
ATOM     23  CA  LEU A   4     -14.861   0.471  20.083  0.00  0.00    +0.137 C 
BRANCH  23  24
ATOM     24  C   LEU A   4     -14.342  -0.821  19.457  0.00  0.00    +0.227 C 
ATOM     25  O   LEU A   4     -14.141  -0.871  18.254  0.00  0.00    -0.286 OA
ENDBRANCH  23  24
BRANCH  23  26
ATOM     26  CB  LEU A   4     -16.190   0.873  19.426  0.00  0.00    +0.028 C 
BRANCH  26  27
ATOM     27  CG  LEU A   4     -17.567   0.604  20.034  0.00  0.00    +0.002 C 
ATOM     28  CD2 LEU A   4     -17.586  -0.526  21.041  0.00  0.00    +0.000 C 
ATOM     29  CD1 LEU A   4     -18.606   0.378  18.911  0.00  0.00    +0.000 C 
ENDBRANCH  26  27
ENDBRANCH  23  26
ENDBRANCH  21  23
ENDBRANCH  18  19
BRANCH  18  30
ATOM     30  CB  VAL A   3     -10.483   2.168  19.741  0.00  0.00    +0.027 C 
ATOM     31  CG2 VAL A   3      -9.487   3.262  19.414  0.00  0.00    +0.002 C 
ATOM     32  CG1 VAL A   3     -10.614   1.216  18.539  0.00  0.00    +0.002 C 
ENDBRANCH  18  30
ENDBRANCH   2  18
TORSDOF 13
REMARK  Name = ../refined-set-2016/3dd8/3dd8_pocket.pdb
REMARK  158 active torsions:
REMARK  status: ('A' for Active; 'I' for Inactive)
REMARK    1  A    between atoms: _1  and  _3
REMARK    2  A    between atoms: _3  and  _4
REMARK    3  A    between atoms: _3  and  _6
REMARK    4  A    between atoms: _6  and  _7
REMARK    5  A    between atoms: _17  and  _19
REMARK    6  A    between atoms: _19  and  _20
REMARK    7  A    between atoms: _19  and  _22
REMARK    8  A    between atoms: _22  and  _23
REMARK    9  A    between atoms: _28  and  _29
REMARK   10  A    between atoms: _31  and  _33
REMARK   11  A    between atoms: _33  and  _34
REMARK   12  A    between atoms: _33  and  _36
REMARK   13  A    between atoms: _36  and  _37
REMARK   14  A    between atoms: _43  and  _45
REMARK   15  A    between atoms: _45  and  _46
REMARK   16  A    between atoms: _45  and  _48
REMARK   17  A    between atoms: _48  and  _49
REMARK   18  A    between atoms: _52  and  _53
REMARK   19  A    between atoms: _58  and  _60
REMARK   20  A    between atoms: _60  and  _61
REMARK   21  A    between atoms: _60  and  _63
REMARK   22  A    between atoms: _63  and  _64
REMARK   23  A    between atoms: _69  and  _71
REMARK   24  A    between atoms: _71  and  _72
REMARK   25  A    between atoms: _71  and  _74
REMARK   26  A    between atoms: _74  and  _75
REMARK   27  A    between atoms: _80  and  _82
REMARK   28  A    between atoms: _82  and  _83
REMARK   29  A    between atoms: _82  and  _85
REMARK   30  A    between atoms: _85  and  _86
REMARK   31  A    between atoms: _91  and  _93
REMARK   32  A    between atoms: _93  and  _94
REMARK   33  A    between atoms: _93  and  _96
REMARK   34  A    between atoms: _96  and  _97
REMARK   35  A    between atoms: _100  and  _102
REMARK   36  A    between atoms: _102  and  _103
REMARK   37  A    between atoms: _102  and  _105
REMARK   38  A    between atoms: _105  and  _106
REMARK   39  A    between atoms: _106  and  _107
REMARK   40  A    between atoms: _112  and  _114
REMARK   41  A    between atoms: _114  and  _115
REMARK   42  A    between atoms: _114  and  _117
REMARK   43  A    between atoms: _117  and  _118
REMARK   44  A    between atoms: _124  and  _126
REMARK   45  A    between atoms: _137  and  _140
REMARK   46  A    between atoms: _140  and  _141
REMARK   47  A    between atoms: _149  and  _150
REMARK   48  A    between atoms: _158  and  _160
REMARK   49  A    between atoms: _160  and  _161
REMARK   50  A    between atoms: _160  and  _163
REMARK   51  A    between atoms: _163  and  _164
REMARK   52  A    between atoms: _164  and  _165
REMARK   53  A    between atoms: _168  and  _170
REMARK   54  A    between atoms: _170  and  _171
REMARK   55  A    between atoms: _170  and  _173
REMARK   56  A    between atoms: _173  and  _174
REMARK   57  A    between atoms: _179  and  _181
REMARK   58  A    between atoms: _181  and  _182
REMARK   59  A    between atoms: _181  and  _184
REMARK   60  A    between atoms: _184  and  _185
REMARK   61  A    between atoms: _185  and  _186
REMARK   62  A    between atoms: _189  and  _191
REMARK   63  A    between atoms: _191  and  _192
REMARK   64  A    between atoms: _191  and  _194
REMARK   65  A    between atoms: _194  and  _195
REMARK   66  A    between atoms: _198  and  _200
REMARK   67  A    between atoms: _200  and  _201
REMARK   68  A    between atoms: _200  and  _203
REMARK   69  A    between atoms: _203  and  _204
REMARK   70  A    between atoms: _205  and  ZN_443
REMARK   71  A    between atoms: _209  and  _211
REMARK   72  A    between atoms: _211  and  _212
REMARK   73  A    between atoms: _211  and  _214
REMARK   74  A    between atoms: _214  and  _215
REMARK   75  A    between atoms: _218  and  _220
REMARK   76  A    between atoms: _220  and  _221
REMARK   77  A    between atoms: _220  and  _223
REMARK   78  A    between atoms: _226  and  _228
REMARK   79  A    between atoms: _228  and  _229
REMARK   80  A    between atoms: _228  and  _231
REMARK   81  A    between atoms: _231  and  _232
REMARK   82  A    between atoms: _237  and  _239
REMARK   83  A    between atoms: _239  and  _240
REMARK   84  A    between atoms: _239  and  _242
REMARK   85  A    between atoms: _242  and  _243
REMARK   86  A    between atoms: _249  and  _251
REMARK   87  A    between atoms: _251  and  _252
REMARK   88  A    between atoms: _254  and  _256
REMARK   89  A    between atoms: _256  and  _257
REMARK   90  A    between atoms: _260  and  _262
REMARK   91  A    between atoms: _262  and  _263
REMARK   92  A    between atoms: _262  and  _265
REMARK   93  A    between atoms: _268  and  _270
REMARK   94  A    between atoms: _270  and  _271
REMARK   95  A    between atoms: _270  and  _273
REMARK   96  A    between atoms: _273  and  _274
REMARK   97  A    between atoms: _274  and  _275
REMARK   98  A    between atoms: _280  and  _282
REMARK   99  A    between atoms: _282  and  _283
REMARK  100  A    between atoms: _282  and  _285
REMARK  101  A    between atoms: _285  and  _286
REMARK  102  A    between atoms: _289  and  _291
REMARK  103  A    between atoms: _291  and  _292
REMARK  104  A    between atoms: _295  and  _297
REMARK  105  A    between atoms: _297  and  _298
REMARK  106  A    between atoms: _297  and  _300
REMARK  107  A    between atoms: _303  and  _305
REMARK  108  A    between atoms: _305  and  _306
REMARK  109  A    between atoms: _305  and  _308
REMARK  110  A    between atoms: _308  and  _309
REMARK  111  A    between atoms: _312  and  _314
REMARK  112  A    between atoms: _314  and  _315
REMARK  113  A    between atoms: _317  and  _319
REMARK  114  A    between atoms: _319  and  _320
REMARK  115  A    between atoms: _319  and  _322
REMARK  116  A    between atoms: _322  and  _323
REMARK  117  A    between atoms: _325  and  _327
REMARK  118  A    between atoms: _327  and  _328
REMARK  119  A    between atoms: _327  and  _330
REMARK  120  A    between atoms: _330  and  _331
REMARK  121  A    between atoms: _334  and  _336
REMARK  122  A    between atoms: _336  and  _337
REMARK  123  A    between atoms: _336  and  _339
REMARK  124  A    between atoms: _339  and  _340
REMARK  125  A    between atoms: _343  and  _345
REMARK  126  A    between atoms: _345  and  _346
REMARK  127  A    between atoms: _345  and  _348
REMARK  128  A    between atoms: _348  and  _349
REMARK  129  A    between atoms: _353  and  _354
REMARK  130  A    between atoms: _360  and  _361
REMARK  131  A    between atoms: _366  and  _368
REMARK  132  A    between atoms: _368  and  _369
REMARK  133  A    between atoms: _368  and  _371
REMARK  134  A    between atoms: _371  and  _372
REMARK  135  A    between atoms: _375  and  _377
REMARK  136  A    between atoms: _377  and  _378
REMARK  137  A    between atoms: _377  and  _380
REMARK  138  A    between atoms: _380  and  _381
REMARK  139  A    between atoms: _384  and  _386
REMARK  140  A    between atoms: _386  and  _387
REMARK  141  A    between atoms: _386  and  _389
REMARK  142  A    between atoms: _391  and  _393
REMARK  143  A    between atoms: _393  and  _394
REMARK  144  A    between atoms: _393  and  _396
REMARK  145  A    between atoms: _399  and  _401
REMARK  146  A    between atoms: _401  and  _402
REMARK  147  A    between atoms: _401  and  _404
REMARK  148  A    between atoms: _404  and  _405
REMARK  149  A    between atoms: _415  and  _417
REMARK  150  A    between atoms: _417  and  _418
REMARK  151  A    between atoms: _417  and  _420
REMARK  152  A    between atoms: _420  and  _421
REMARK  153  A    between atoms: _426  and  _428
REMARK  154  A    between atoms: _428  and  _429
REMARK  155  A    between atoms: _428  and  _431
REMARK  156  A    between atoms: _431  and  _432
REMARK  157  A    between atoms: _432  and  _433
REMARK  158  A    between atoms: _433  and  _434
REMARK                            x       y       z     vdW  Elec       q    Type
REMARK                         _______ _______ _______ _____ _____    ______ ____
ROOT
ATOM      1  CA  THR A   5       0.349   0.053  16.148  0.00  0.00    +0.176 C 
ENDROOT
BRANCH   1   2
ATOM      2  C   THR A   5       1.245   1.249  16.460  0.00  0.00    +0.246 C 
ATOM      3  O   THR A   5       0.797   2.204  17.105  0.00  0.00    -0.273 OA
ATOM      4  N   PRO A   6       2.521   1.209  16.021  0.00  0.00    -0.272 N 
ATOM      5  CA  PRO A   6       3.275   2.458  16.106  0.00  0.00    +0.152 C 
ATOM      6  CB  PRO A   6       4.496   2.172  15.236  0.00  0.00    +0.031 C 
ATOM      7  CG  PRO A   6       4.737   0.718  15.454  0.00  0.00    +0.024 C 
ATOM      8  CD  PRO A   6       3.348   0.112  15.480  0.00  0.00    +0.094 C 
BRANCH   5   9
ATOM      9  C   PRO A   6       2.444   3.598  15.521  0.00  0.00    +0.244 C 
ATOM     10  N   PRO A   7       2.507   4.802  16.127  0.00  0.00    -0.272 N 
ATOM     11  CA  PRO A   7       3.340   5.294  17.243  0.00  0.00    +0.152 C 
ATOM     12  CB  PRO A   7       3.247   6.820  17.076  0.00  0.00    +0.031 C 
ATOM     13  CG  PRO A   7       1.931   7.035  16.496  0.00  0.00    +0.024 C 
ATOM     14  CD  PRO A   7       1.648   5.873  15.596  0.00  0.00    +0.094 C 
ATOM     15  O   PRO A   6       1.736   3.383  14.526  0.00  0.00    -0.273 OA
BRANCH  11  16
ATOM     16  C   PRO A   7       2.938   4.893  18.681  0.00  0.00    +0.241 C 
ATOM     17  O   PRO A   7       3.563   5.360  19.639  0.00  0.00    -0.273 OA
ATOM     18  N   LEU A   8       1.924   4.043  18.820  0.00  0.00    -0.297 N 
ATOM     19  H   LEU A   8       1.374   3.786  17.975  0.00  0.00    +0.150 HD
BRANCH  18  20
ATOM     20  CA  LEU A   8       1.543   3.449  20.109  0.00  0.00    +0.149 C 
BRANCH  20  21
ATOM     21  C   LEU A   8       1.164   4.444  21.204  0.00  0.00    +0.241 C 
ATOM     22  O   LEU A   8       1.338   4.177  22.401  0.00  0.00    -0.273 OA
ATOM     23  N   LEU A   9       0.623   5.578  20.787  0.00  0.00    -0.298 N 
ATOM     24  H   LEU A   9       0.410   5.689  19.775  0.00  0.00    +0.150 HD
BRANCH  23  25
ATOM     25  CA  LEU A   9       0.314   6.681  21.696  0.00  0.00    +0.137 C 
BRANCH  25  26
ATOM     26  C   LEU A   9      -0.751   6.302  22.711  0.00  0.00    +0.227 C 
ATOM     27  O   LEU A   9      -1.732   5.643  22.382  0.00  0.00    -0.286 OA
ENDBRANCH  25  26
BRANCH  25  28
ATOM     28  CB  LEU A   9      -0.123   7.914  20.900  0.00  0.00    +0.028 C 
BRANCH  28  29
ATOM     29  CG  LEU A   9       0.922   8.432  19.907  0.00  0.00    +0.002 C 
ATOM     30  CD2 LEU A   9       2.098   9.030  20.669  0.00  0.00    +0.000 C 
ATOM     31  CD1 LEU A   9       0.311   9.453  18.938  0.00  0.00    +0.000 C 
ENDBRANCH  28  29
ENDBRANCH  25  28
ENDBRANCH  23  25
ENDBRANCH  20  21
BRANCH  20  32
ATOM     32  CB  LEU A   8       2.660   2.521  20.607  0.00  0.00    +0.029 C 
BRANCH  32  33
ATOM     33  CG  LEU A   8       2.955   1.281  19.758  0.00  0.00    +0.002 C 
ATOM     34  CD2 LEU A   8       4.271   0.686  20.195  0.00  0.00    +0.000 C 
ATOM     35  CD1 LEU A   8       1.843   0.242  19.894  0.00  0.00    +0.000 C 
ENDBRANCH  32  33
ENDBRANCH  20  32
ENDBRANCH  18  20
ENDBRANCH  11  16
ENDBRANCH   5   9
ENDBRANCH   1   2
BRANCH   1  38
ATOM     36  C   THR A   4      -0.952  -1.019  17.928  0.00  0.00    +0.243 C 
ATOM     37  O   THR A   4      -0.323  -2.083  17.829  0.00  0.00    -0.273 OA
ATOM     38  N   THR A   5      -0.777   0.013  17.099  0.00  0.00    -0.295 N 
ATOM     39  H   THR A   5      -1.450   0.806  17.125  0.00  0.00    +0.150 HD
BRANCH  36  40
ATOM     40  CA  THR A   4      -1.991  -0.856  19.030  0.00  0.00    +0.176 C 
BRANCH  40  43
ATOM     41  C   LEU A   3      -2.204   1.402  19.841  0.00  0.00    +0.241 C 
ATOM     42  O   LEU A   3      -1.204   1.232  20.549  0.00  0.00    -0.273 OA
ATOM     43  N   THR A   4      -2.666   0.450  19.039  0.00  0.00    -0.295 N 
ATOM     44  H   THR A   4      -3.490   0.625  18.429  0.00  0.00    +0.150 HD
BRANCH  41  45
ATOM     45  CA  LEU A   3      -2.959   2.734  19.864  0.00  0.00    +0.149 C 
BRANCH  45  48
ATOM     46  C   SER A   2      -3.522   2.577  22.231  0.00  0.00    +0.243 C 
ATOM     47  O   SER A   2      -4.346   1.680  22.057  0.00  0.00    -0.273 OA
ATOM     48  N   LEU A   3      -2.985   3.268  21.228  0.00  0.00    -0.297 N 
ATOM     49  H   LEU A   3      -2.576   4.205  21.416  0.00  0.00    +0.150 HD
BRANCH  46  50
ATOM     50  CA  SER A   2      -3.080   2.974  23.638  0.00  0.00    +0.178 C 
BRANCH  50  53
ATOM     51  C   GLY A   1      -4.330   3.005  25.744  0.00  0.00    +0.240 C 
ATOM     52  O   GLY A   1      -4.270   4.228  25.877  0.00  0.00    -0.274 OA
ATOM     53  N   SER A   2      -3.888   2.344  24.678  0.00  0.00    -0.295 N 
ATOM     54  H   SER A   2      -4.128   1.337  24.581  0.00  0.00    +0.150 HD
BRANCH  51  55
ATOM     55  CA  GLY A   1      -4.927   2.145  26.823  0.00  0.00    +0.169 C 
BRANCH  55  56
ATOM     56  N   GLY A   1      -5.941   2.822  27.613  0.00  0.00    -0.236 NA
ATOM     57  H   GLY A   1      -6.495   3.590  27.184  0.00  0.00    +0.142 HD
ENDBRANCH  55  56
ENDBRANCH  51  55
ENDBRANCH  50  53
BRANCH  50  58
ATOM     58  CB  SER A   2      -1.603   2.579  23.829  0.00  0.00    +0.166 C 
BRANCH  58  59
ATOM     59  OG  SER A   2      -1.374   1.246  23.382  0.00  0.00    -0.380 OA
ATOM     60  H   SER A   2      -1.601   1.178  22.421  0.00  0.00    +0.211 HD
ENDBRANCH  58  59
ENDBRANCH  50  58
ENDBRANCH  46  50
ENDBRANCH  45  48
BRANCH  45  61
ATOM     61  CB  LEU A   3      -2.272   3.719  18.924  0.00  0.00    +0.029 C 
BRANCH  61  62
ATOM     62  CG  LEU A   3      -2.978   5.060  18.679  0.00  0.00    +0.002 C 
ATOM     63  CD2 LEU A   3      -4.376   4.816  18.114  0.00  0.00    +0.000 C 
ATOM     64  CD1 LEU A   3      -2.149   5.941  17.748  0.00  0.00    +0.000 C 
ENDBRANCH  61  62
ENDBRANCH  45  61
ENDBRANCH  41  45
ENDBRANCH  40  43
BRANCH  40  65
ATOM     65  CB  THR A   4      -2.973  -2.030  18.975  0.00  0.00    +0.137 C 
ATOM     66  CG2 THR A   4      -4.012  -1.950  20.114  0.00  0.00    +0.034 C 
BRANCH  65  67
ATOM     67  OG1 THR A   4      -3.623  -2.020  17.703  0.00  0.00    -0.382 OA
ATOM     68  HG1 THR A   4      -4.262  -2.775  17.654  0.00  0.00    +0.210 HD
ENDBRANCH  65  67
ENDBRANCH  40  65
ENDBRANCH  36  40
ENDBRANCH   1  38
BRANCH   1  69
ATOM     69  CB  THR A   5      -0.115   0.147  14.678  0.00  0.00    +0.137 C 
ATOM     70  CG2 THR A   5      -1.236  -0.853  14.373  0.00  0.00    +0.034 C 
BRANCH  69  71
ATOM     71  OG1 THR A   5      -0.571   1.476  14.401  0.00  0.00    -0.382 OA
ATOM     72  HG1 THR A   5       0.169   2.116  14.554  0.00  0.00    +0.210 HD
ENDBRANCH  69  71
ENDBRANCH   1  69
TORSDOF 28
REMARK  Name = ../refined-set-2016/3dd8/3dd8_pocket.pdb
REMARK  158 active torsions:
REMARK  status: ('A' for Active; 'I' for Inactive)
REMARK    1  A    between atoms: _1  and  _3
REMARK    2  A    between atoms: _3  and  _4
REMARK    3  A    between atoms: _3  and  _6
REMARK    4  A    between atoms: _6  and  _7
REMARK    5  A    between atoms: _17  and  _19
REMARK    6  A    between atoms: _19  and  _20
REMARK    7  A    between atoms: _19  and  _22
REMARK    8  A    between atoms: _22  and  _23
REMARK    9  A    between atoms: _28  and  _29
REMARK   10  A    between atoms: _31  and  _33
REMARK   11  A    between atoms: _33  and  _34
REMARK   12  A    between atoms: _33  and  _36
REMARK   13  A    between atoms: _36  and  _37
REMARK   14  A    between atoms: _43  and  _45
REMARK   15  A    between atoms: _45  and  _46
REMARK   16  A    between atoms: _45  and  _48
REMARK   17  A    between atoms: _48  and  _49
REMARK   18  A    between atoms: _52  and  _53
REMARK   19  A    between atoms: _58  and  _60
REMARK   20  A    between atoms: _60  and  _61
REMARK   21  A    between atoms: _60  and  _63
REMARK   22  A    between atoms: _63  and  _64
REMARK   23  A    between atoms: _69  and  _71
REMARK   24  A    between atoms: _71  and  _72
REMARK   25  A    between atoms: _71  and  _74
REMARK   26  A    between atoms: _74  and  _75
REMARK   27  A    between atoms: _80  and  _82
REMARK   28  A    between atoms: _82  and  _83
REMARK   29  A    between atoms: _82  and  _85
REMARK   30  A    between atoms: _85  and  _86
REMARK   31  A    between atoms: _91  and  _93
REMARK   32  A    between atoms: _93  and  _94
REMARK   33  A    between atoms: _93  and  _96
REMARK   34  A    between atoms: _96  and  _97
REMARK   35  A    between atoms: _100  and  _102
REMARK   36  A    between atoms: _102  and  _103
REMARK   37  A    between atoms: _102  and  _105
REMARK   38  A    between atoms: _105  and  _106
REMARK   39  A    between atoms: _106  and  _107
REMARK   40  A    between atoms: _112  and  _114
REMARK   41  A    between atoms: _114  and  _115
REMARK   42  A    between atoms: _114  and  _117
REMARK   43  A    between atoms: _117  and  _118
REMARK   44  A    between atoms: _124  and  _126
REMARK   45  A    between atoms: _137  and  _140
REMARK   46  A    between atoms: _140  and  _141
REMARK   47  A    between atoms: _149  and  _150
REMARK   48  A    between atoms: _158  and  _160
REMARK   49  A    between atoms: _160  and  _161
REMARK   50  A    between atoms: _160  and  _163
REMARK   51  A    between atoms: _163  and  _164
REMARK   52  A    between atoms: _164  and  _165
REMARK   53  A    between atoms: _168  and  _170
REMARK   54  A    between atoms: _170  and  _171
REMARK   55  A    between atoms: _170  and  _173
REMARK   56  A    between atoms: _173  and  _174
REMARK   57  A    between atoms: _179  and  _181
REMARK   58  A    between atoms: _181  and  _182
REMARK   59  A    between atoms: _181  and  _184
REMARK   60  A    between atoms: _184  and  _185
REMARK   61  A    between atoms: _185  and  _186
REMARK   62  A    between atoms: _189  and  _191
REMARK   63  A    between atoms: _191  and  _192
REMARK   64  A    between atoms: _191  and  _194
REMARK   65  A    between atoms: _194  and  _195
REMARK   66  A    between atoms: _198  and  _200
REMARK   67  A    between atoms: _200  and  _201
REMARK   68  A    between atoms: _200  and  _203
REMARK   69  A    between atoms: _203  and  _204
REMARK   70  A    between atoms: _205  and  ZN_443
REMARK   71  A    between atoms: _209  and  _211
REMARK   72  A    between atoms: _211  and  _212
REMARK   73  A    between atoms: _211  and  _214
REMARK   74  A    between atoms: _214  and  _215
REMARK   75  A    between atoms: _218  and  _220
REMARK   76  A    between atoms: _220  and  _221
REMARK   77  A    between atoms: _220  and  _223
REMARK   78  A    between atoms: _226  and  _228
REMARK   79  A    between atoms: _228  and  _229
REMARK   80  A    between atoms: _228  and  _231
REMARK   81  A    between atoms: _231  and  _232
REMARK   82  A    between atoms: _237  and  _239
REMARK   83  A    between atoms: _239  and  _240
REMARK   84  A    between atoms: _239  and  _242
REMARK   85  A    between atoms: _242  and  _243
REMARK   86  A    between atoms: _249  and  _251
REMARK   87  A    between atoms: _251  and  _252
REMARK   88  A    between atoms: _254  and  _256
REMARK   89  A    between atoms: _256  and  _257
REMARK   90  A    between atoms: _260  and  _262
REMARK   91  A    between atoms: _262  and  _263
REMARK   92  A    between atoms: _262  and  _265
REMARK   93  A    between atoms: _268  and  _270
REMARK   94  A    between atoms: _270  and  _271
REMARK   95  A    between atoms: _270  and  _273
REMARK   96  A    between atoms: _273  and  _274
REMARK   97  A    between atoms: _274  and  _275
REMARK   98  A    between atoms: _280  and  _282
REMARK   99  A    between atoms: _282  and  _283
REMARK  100  A    between atoms: _282  and  _285
REMARK  101  A    between atoms: _285  and  _286
REMARK  102  A    between atoms: _289  and  _291
REMARK  103  A    between atoms: _291  and  _292
REMARK  104  A    between atoms: _295  and  _297
REMARK  105  A    between atoms: _297  and  _298
REMARK  106  A    between atoms: _297  and  _300
REMARK  107  A    between atoms: _303  and  _305
REMARK  108  A    between atoms: _305  and  _306
REMARK  109  A    between atoms: _305  and  _308
REMARK  110  A    between atoms: _308  and  _309
REMARK  111  A    between atoms: _312  and  _314
REMARK  112  A    between atoms: _314  and  _315
REMARK  113  A    between atoms: _317  and  _319
REMARK  114  A    between atoms: _319  and  _320
REMARK  115  A    between atoms: _319  and  _322
REMARK  116  A    between atoms: _322  and  _323
REMARK  117  A    between atoms: _325  and  _327
REMARK  118  A    between atoms: _327  and  _328
REMARK  119  A    between atoms: _327  and  _330
REMARK  120  A    between atoms: _330  and  _331
REMARK  121  A    between atoms: _334  and  _336
REMARK  122  A    between atoms: _336  and  _337
REMARK  123  A    between atoms: _336  and  _339
REMARK  124  A    between atoms: _339  and  _340
REMARK  125  A    between atoms: _343  and  _345
REMARK  126  A    between atoms: _345  and  _346
REMARK  127  A    between atoms: _345  and  _348
REMARK  128  A    between atoms: _348  and  _349
REMARK  129  A    between atoms: _353  and  _354
REMARK  130  A    between atoms: _360  and  _361
REMARK  131  A    between atoms: _366  and  _368
REMARK  132  A    between atoms: _368  and  _369
REMARK  133  A    between atoms: _368  and  _371
REMARK  134  A    between atoms: _371  and  _372
REMARK  135  A    between atoms: _375  and  _377
REMARK  136  A    between atoms: _377  and  _378
REMARK  137  A    between atoms: _377  and  _380
REMARK  138  A    between atoms: _380  and  _381
REMARK  139  A    between atoms: _384  and  _386
REMARK  140  A    between atoms: _386  and  _387
REMARK  141  A    between atoms: _386  and  _389
REMARK  142  A    between atoms: _391  and  _393
REMARK  143  A    between atoms: _393  and  _394
REMARK  144  A    between atoms: _393  and  _396
REMARK  145  A    between atoms: _399  and  _401
REMARK  146  A    between atoms: _401  and  _402
REMARK  147  A    between atoms: _401  and  _404
REMARK  148  A    between atoms: _404  and  _405
REMARK  149  A    between atoms: _415  and  _417
REMARK  150  A    between atoms: _417  and  _418
REMARK  151  A    between atoms: _417  and  _420
REMARK  152  A    between atoms: _420  and  _421
REMARK  153  A    between atoms: _426  and  _428
REMARK  154  A    between atoms: _428  and  _429
REMARK  155  A    between atoms: _428  and  _431
REMARK  156  A    between atoms: _431  and  _432
REMARK  157  A    between atoms: _432  and  _433
REMARK  158  A    between atoms: _433  and  _434
REMARK                            x       y       z     vdW  Elec       q    Type
REMARK                         _______ _______ _______ _____ _____    ______ ____
ROOT
ATOM      1  C   CYS A   1      -5.866   7.667  24.051  0.00  0.00    +0.239 C 
ATOM      2  N   VAL A   2      -5.967   6.359  24.270  0.00  0.00    -0.298 N 
ATOM      3  H   VAL A   2      -5.158   5.827  24.648  0.00  0.00    +0.150 HD
ATOM      4  O   CYS A   1      -6.836   8.357  23.788  0.00  0.00    -0.274 OA
ENDROOT
BRANCH   1   5
ATOM      5  CA  CYS A   1      -4.471   8.292  24.115  0.00  0.00    +0.156 C 
BRANCH   5   6
ATOM      6  N   CYS A   1      -3.439   7.279  24.254  0.00  0.00    -0.237 NA
ATOM      7  H   CYS A   1      -3.399   6.508  23.557  0.00  0.00    +0.142 HD
ENDBRANCH   5   6
BRANCH   5   8
ATOM      8  CB  CYS A   1      -4.207   9.104  22.830  0.00  0.00    +0.095 C 
ATOM      9  SG  CYS A   1      -4.268   8.115  21.290  0.00  0.00    -0.080 S 
ENDBRANCH   5   8
ENDBRANCH   1   5
BRANCH   2  10
ATOM     10  CA  VAL A   2      -7.233   5.672  23.973  0.00  0.00    +0.137 C 
BRANCH  10  11
ATOM     11  CB  VAL A   2      -7.047   4.482  22.996  0.00  0.00    +0.026 C 
ATOM     12  CG2 VAL A   2      -8.416   3.834  22.654  0.00  0.00    +0.002 C 
ATOM     13  CG1 VAL A   2      -6.310   4.917  21.719  0.00  0.00    +0.002 C 
ENDBRANCH  10  11
BRANCH  10  14
ATOM     14  C   VAL A   2      -7.971   5.165  25.200  0.00  0.00    +0.227 C 
ATOM     15  O   VAL A   2      -7.399   4.493  26.054  0.00  0.00    -0.286 OA
ENDBRANCH  10  14
ENDBRANCH   2  10
TORSDOF 6
REMARK  Name = ../refined-set-2016/3dd8/3dd8_pocket.pdb
REMARK  158 active torsions:
REMARK  status: ('A' for Active; 'I' for Inactive)
REMARK    1  A    between atoms: _1  and  _3
REMARK    2  A    between atoms: _3  and  _4
REMARK    3  A    between atoms: _3  and  _6
REMARK    4  A    between atoms: _6  and  _7
REMARK    5  A    between atoms: _17  and  _19
REMARK    6  A    between atoms: _19  and  _20
REMARK    7  A    between atoms: _19  and  _22
REMARK    8  A    between atoms: _22  and  _23
REMARK    9  A    between atoms: _28  and  _29
REMARK   10  A    between atoms: _31  and  _33
REMARK   11  A    between atoms: _33  and  _34
REMARK   12  A    between atoms: _33  and  _36
REMARK   13  A    between atoms: _36  and  _37
REMARK   14  A    between atoms: _43  and  _45
REMARK   15  A    between atoms: _45  and  _46
REMARK   16  A    between atoms: _45  and  _48
REMARK   17  A    between atoms: _48  and  _49
REMARK   18  A    between atoms: _52  and  _53
REMARK   19  A    between atoms: _58  and  _60
REMARK   20  A    between atoms: _60  and  _61
REMARK   21  A    between atoms: _60  and  _63
REMARK   22  A    between atoms: _63  and  _64
REMARK   23  A    between atoms: _69  and  _71
REMARK   24  A    between atoms: _71  and  _72
REMARK   25  A    between atoms: _71  and  _74
REMARK   26  A    between atoms: _74  and  _75
REMARK   27  A    between atoms: _80  and  _82
REMARK   28  A    between atoms: _82  and  _83
REMARK   29  A    between atoms: _82  and  _85
REMARK   30  A    between atoms: _85  and  _86
REMARK   31  A    between atoms: _91  and  _93
REMARK   32  A    between atoms: _93  and  _94
REMARK   33  A    between atoms: _93  and  _96
REMARK   34  A    between atoms: _96  and  _97
REMARK   35  A    between atoms: _100  and  _102
REMARK   36  A    between atoms: _102  and  _103
REMARK   37  A    between atoms: _102  and  _105
REMARK   38  A    between atoms: _105  and  _106
REMARK   39  A    between atoms: _106  and  _107
REMARK   40  A    between atoms: _112  and  _114
REMARK   41  A    between atoms: _114  and  _115
REMARK   42  A    between atoms: _114  and  _117
REMARK   43  A    between atoms: _117  and  _118
REMARK   44  A    between atoms: _124  and  _126
REMARK   45  A    between atoms: _137  and  _140
REMARK   46  A    between atoms: _140  and  _141
REMARK   47  A    between atoms: _149  and  _150
REMARK   48  A    between atoms: _158  and  _160
REMARK   49  A    between atoms: _160  and  _161
REMARK   50  A    between atoms: _160  and  _163
REMARK   51  A    between atoms: _163  and  _164
REMARK   52  A    between atoms: _164  and  _165
REMARK   53  A    between atoms: _168  and  _170
REMARK   54  A    between atoms: _170  and  _171
REMARK   55  A    between atoms: _170  and  _173
REMARK   56  A    between atoms: _173  and  _174
REMARK   57  A    between atoms: _179  and  _181
REMARK   58  A    between atoms: _181  and  _182
REMARK   59  A    between atoms: _181  and  _184
REMARK   60  A    between atoms: _184  and  _185
REMARK   61  A    between atoms: _185  and  _186
REMARK   62  A    between atoms: _189  and  _191
REMARK   63  A    between atoms: _191  and  _192
REMARK   64  A    between atoms: _191  and  _194
REMARK   65  A    between atoms: _194  and  _195
REMARK   66  A    between atoms: _198  and  _200
REMARK   67  A    between atoms: _200  and  _201
REMARK   68  A    between atoms: _200  and  _203
REMARK   69  A    between atoms: _203  and  _204
REMARK   70  A    between atoms: _205  and  ZN_443
REMARK   71  A    between atoms: _209  and  _211
REMARK   72  A    between atoms: _211  and  _212
REMARK   73  A    between atoms: _211  and  _214
REMARK   74  A    between atoms: _214  and  _215
REMARK   75  A    between atoms: _218  and  _220
REMARK   76  A    between atoms: _220  and  _221
REMARK   77  A    between atoms: _220  and  _223
REMARK   78  A    between atoms: _226  and  _228
REMARK   79  A    between atoms: _228  and  _229
REMARK   80  A    between atoms: _228  and  _231
REMARK   81  A    between atoms: _231  and  _232
REMARK   82  A    between atoms: _237  and  _239
REMARK   83  A    between atoms: _239  and  _240
REMARK   84  A    between atoms: _239  and  _242
REMARK   85  A    between atoms: _242  and  _243
REMARK   86  A    between atoms: _249  and  _251
REMARK   87  A    between atoms: _251  and  _252
REMARK   88  A    between atoms: _254  and  _256
REMARK   89  A    between atoms: _256  and  _257
REMARK   90  A    between atoms: _260  and  _262
REMARK   91  A    between atoms: _262  and  _263
REMARK   92  A    between atoms: _262  and  _265
REMARK   93  A    between atoms: _268  and  _270
REMARK   94  A    between atoms: _270  and  _271
REMARK   95  A    between atoms: _270  and  _273
REMARK   96  A    between atoms: _273  and  _274
REMARK   97  A    between atoms: _274  and  _275
REMARK   98  A    between atoms: _280  and  _282
REMARK   99  A    between atoms: _282  and  _283
REMARK  100  A    between atoms: _282  and  _285
REMARK  101  A    between atoms: _285  and  _286
REMARK  102  A    between atoms: _289  and  _291
REMARK  103  A    between atoms: _291  and  _292
REMARK  104  A    between atoms: _295  and  _297
REMARK  105  A    between atoms: _297  and  _298
REMARK  106  A    between atoms: _297  and  _300
REMARK  107  A    between atoms: _303  and  _305
REMARK  108  A    between atoms: _305  and  _306
REMARK  109  A    between atoms: _305  and  _308
REMARK  110  A    between atoms: _308  and  _309
REMARK  111  A    between atoms: _312  and  _314
REMARK  112  A    between atoms: _314  and  _315
REMARK  113  A    between atoms: _317  and  _319
REMARK  114  A    between atoms: _319  and  _320
REMARK  115  A    between atoms: _319  and  _322
REMARK  116  A    between atoms: _322  and  _323
REMARK  117  A    between atoms: _325  and  _327
REMARK  118  A    between atoms: _327  and  _328
REMARK  119  A    between atoms: _327  and  _330
REMARK  120  A    between atoms: _330  and  _331
REMARK  121  A    between atoms: _334  and  _336
REMARK  122  A    between atoms: _336  and  _337
REMARK  123  A    between atoms: _336  and  _339
REMARK  124  A    between atoms: _339  and  _340
REMARK  125  A    between atoms: _343  and  _345
REMARK  126  A    between atoms: _345  and  _346
REMARK  127  A    between atoms: _345  and  _348
REMARK  128  A    between atoms: _348  and  _349
REMARK  129  A    between atoms: _353  and  _354
REMARK  130  A    between atoms: _360  and  _361
REMARK  131  A    between atoms: _366  and  _368
REMARK  132  A    between atoms: _368  and  _369
REMARK  133  A    between atoms: _368  and  _371
REMARK  134  A    between atoms: _371  and  _372
REMARK  135  A    between atoms: _375  and  _377
REMARK  136  A    between atoms: _377  and  _378
REMARK  137  A    between atoms: _377  and  _380
REMARK  138  A    between atoms: _380  and  _381
REMARK  139  A    between atoms: _384  and  _386
REMARK  140  A    between atoms: _386  and  _387
REMARK  141  A    between atoms: _386  and  _389
REMARK  142  A    between atoms: _391  and  _393
REMARK  143  A    between atoms: _393  and  _394
REMARK  144  A    between atoms: _393  and  _396
REMARK  145  A    between atoms: _399  and  _401
REMARK  146  A    between atoms: _401  and  _402
REMARK  147  A    between atoms: _401  and  _404
REMARK  148  A    between atoms: _404  and  _405
REMARK  149  A    between atoms: _415  and  _417
REMARK  150  A    between atoms: _417  and  _418
REMARK  151  A    between atoms: _417  and  _420
REMARK  152  A    between atoms: _420  and  _421
REMARK  153  A    between atoms: _426  and  _428
REMARK  154  A    between atoms: _428  and  _429
REMARK  155  A    between atoms: _428  and  _431
REMARK  156  A    between atoms: _431  and  _432
REMARK  157  A    between atoms: _432  and  _433
REMARK  158  A    between atoms: _433  and  _434
REMARK                            x       y       z     vdW  Elec       q    Type
REMARK                         _______ _______ _______ _____ _____    ______ ____
ROOT
ATOM      1  CG  TRP A   1      -8.791   0.181  24.120  0.00  0.00    -0.002 A 
ATOM      2  CD1 TRP A   1      -7.584   0.793  24.280  0.00  0.00    +0.068 A 
ATOM      3  NE1 TRP A   1      -6.867   0.735  23.111  0.00  0.00    -0.352 N 
ATOM      4  HE1 TRP A   1      -5.916   1.129  22.966  0.00  0.00    +0.166 HD
ATOM      5  CE2 TRP A   1      -7.606   0.074  22.165  0.00  0.00    +0.056 A 
ATOM      6  CZ2 TRP A   1      -7.299  -0.246  20.846  0.00  0.00    +0.017 A 
ATOM      7  CH2 TRP A   1      -8.258  -0.918  20.118  0.00  0.00    +0.001 A 
ATOM      8  CZ3 TRP A   1      -9.496  -1.287  20.690  0.00  0.00    +0.000 A 
ATOM      9  CE3 TRP A   1      -9.796  -0.969  21.998  0.00  0.00    +0.001 A 
ATOM     10  CD2 TRP A   1      -8.833  -0.286  22.766  0.00  0.00    +0.013 A 
ENDROOT
BRANCH   1  11
ATOM     11  CB  TRP A   1      -9.863   0.053  25.135  0.00  0.00    +0.053 C 
BRANCH  11  12
ATOM     12  CA  TRP A   1     -10.879   1.193  25.026  0.00  0.00    +0.137 C 
BRANCH  12  13
ATOM     13  N   TRP A   1     -10.431   2.375  25.748  0.00  0.00    -0.239 NA
ATOM     14  H   TRP A   1      -9.873   2.269  26.619  0.00  0.00    +0.142 HD
ENDBRANCH  12  13
BRANCH  12  15
ATOM     15  C   TRP A   1     -12.230   0.751  25.528  0.00  0.00    +0.224 C 
ATOM     16  O   TRP A   1     -12.506   0.801  26.721  0.00  0.00    -0.287 OA
ENDBRANCH  12  15
ENDBRANCH  11  12
ENDBRANCH   1  11
TORSDOF 4
REMARK  Name = ../refined-set-2016/3dd8/3dd8_pocket.pdb
REMARK  158 active torsions:
REMARK  status: ('A' for Active; 'I' for Inactive)
REMARK    1  A    between atoms: _1  and  _3
REMARK    2  A    between atoms: _3  and  _4
REMARK    3  A    between atoms: _3  and  _6
REMARK    4  A    between atoms: _6  and  _7
REMARK    5  A    between atoms: _17  and  _19
REMARK    6  A    between atoms: _19  and  _20
REMARK    7  A    between atoms: _19  and  _22
REMARK    8  A    between atoms: _22  and  _23
REMARK    9  A    between atoms: _28  and  _29
REMARK   10  A    between atoms: _31  and  _33
REMARK   11  A    between atoms: _33  and  _34
REMARK   12  A    between atoms: _33  and  _36
REMARK   13  A    between atoms: _36  and  _37
REMARK   14  A    between atoms: _43  and  _45
REMARK   15  A    between atoms: _45  and  _46
REMARK   16  A    between atoms: _45  and  _48
REMARK   17  A    between atoms: _48  and  _49
REMARK   18  A    between atoms: _52  and  _53
REMARK   19  A    between atoms: _58  and  _60
REMARK   20  A    between atoms: _60  and  _61
REMARK   21  A    between atoms: _60  and  _63
REMARK   22  A    between atoms: _63  and  _64
REMARK   23  A    between atoms: _69  and  _71
REMARK   24  A    between atoms: _71  and  _72
REMARK   25  A    between atoms: _71  and  _74
REMARK   26  A    between atoms: _74  and  _75
REMARK   27  A    between atoms: _80  and  _82
REMARK   28  A    between atoms: _82  and  _83
REMARK   29  A    between atoms: _82  and  _85
REMARK   30  A    between atoms: _85  and  _86
REMARK   31  A    between atoms: _91  and  _93
REMARK   32  A    between atoms: _93  and  _94
REMARK   33  A    between atoms: _93  and  _96
REMARK   34  A    between atoms: _96  and  _97
REMARK   35  A    between atoms: _100  and  _102
REMARK   36  A    between atoms: _102  and  _103
REMARK   37  A    between atoms: _102  and  _105
REMARK   38  A    between atoms: _105  and  _106
REMARK   39  A    between atoms: _106  and  _107
REMARK   40  A    between atoms: _112  and  _114
REMARK   41  A    between atoms: _114  and  _115
REMARK   42  A    between atoms: _114  and  _117
REMARK   43  A    between atoms: _117  and  _118
REMARK   44  A    between atoms: _124  and  _126
REMARK   45  A    between atoms: _137  and  _140
REMARK   46  A    between atoms: _140  and  _141
REMARK   47  A    between atoms: _149  and  _150
REMARK   48  A    between atoms: _158  and  _160
REMARK   49  A    between atoms: _160  and  _161
REMARK   50  A    between atoms: _160  and  _163
REMARK   51  A    between atoms: _163  and  _164
REMARK   52  A    between atoms: _164  and  _165
REMARK   53  A    between atoms: _168  and  _170
REMARK   54  A    between atoms: _170  and  _171
REMARK   55  A    between atoms: _170  and  _173
REMARK   56  A    between atoms: _173  and  _174
REMARK   57  A    between atoms: _179  and  _181
REMARK   58  A    between atoms: _181  and  _182
REMARK   59  A    between atoms: _181  and  _184
REMARK   60  A    between atoms: _184  and  _185
REMARK   61  A    between atoms: _185  and  _186
REMARK   62  A    between atoms: _189  and  _191
REMARK   63  A    between atoms: _191  and  _192
REMARK   64  A    between atoms: _191  and  _194
REMARK   65  A    between atoms: _194  and  _195
REMARK   66  A    between atoms: _198  and  _200
REMARK   67  A    between atoms: _200  and  _201
REMARK   68  A    between atoms: _200  and  _203
REMARK   69  A    between atoms: _203  and  _204
REMARK   70  A    between atoms: _205  and  ZN_443
REMARK   71  A    between atoms: _209  and  _211
REMARK   72  A    between atoms: _211  and  _212
REMARK   73  A    between atoms: _211  and  _214
REMARK   74  A    between atoms: _214  and  _215
REMARK   75  A    between atoms: _218  and  _220
REMARK   76  A    between atoms: _220  and  _221
REMARK   77  A    between atoms: _220  and  _223
REMARK   78  A    between atoms: _226  and  _228
REMARK   79  A    between atoms: _228  and  _229
REMARK   80  A    between atoms: _228  and  _231
REMARK   81  A    between atoms: _231  and  _232
REMARK   82  A    between atoms: _237  and  _239
REMARK   83  A    between atoms: _239  and  _240
REMARK   84  A    between atoms: _239  and  _242
REMARK   85  A    between atoms: _242  and  _243
REMARK   86  A    between atoms: _249  and  _251
REMARK   87  A    between atoms: _251  and  _252
REMARK   88  A    between atoms: _254  and  _256
REMARK   89  A    between atoms: _256  and  _257
REMARK   90  A    between atoms: _260  and  _262
REMARK   91  A    between atoms: _262  and  _263
REMARK   92  A    between atoms: _262  and  _265
REMARK   93  A    between atoms: _268  and  _270
REMARK   94  A    between atoms: _270  and  _271
REMARK   95  A    between atoms: _270  and  _273
REMARK   96  A    between atoms: _273  and  _274
REMARK   97  A    between atoms: _274  and  _275
REMARK   98  A    between atoms: _280  and  _282
REMARK   99  A    between atoms: _282  and  _283
REMARK  100  A    between atoms: _282  and  _285
REMARK  101  A    between atoms: _285  and  _286
REMARK  102  A    between atoms: _289  and  _291
REMARK  103  A    between atoms: _291  and  _292
REMARK  104  A    between atoms: _295  and  _297
REMARK  105  A    between atoms: _297  and  _298
REMARK  106  A    between atoms: _297  and  _300
REMARK  107  A    between atoms: _303  and  _305
REMARK  108  A    between atoms: _305  and  _306
REMARK  109  A    between atoms: _305  and  _308
REMARK  110  A    between atoms: _308  and  _309
REMARK  111  A    between atoms: _312  and  _314
REMARK  112  A    between atoms: _314  and  _315
REMARK  113  A    between atoms: _317  and  _319
REMARK  114  A    between atoms: _319  and  _320
REMARK  115  A    between atoms: _319  and  _322
REMARK  116  A    between atoms: _322  and  _323
REMARK  117  A    between atoms: _325  and  _327
REMARK  118  A    between atoms: _327  and  _328
REMARK  119  A    between atoms: _327  and  _330
REMARK  120  A    between atoms: _330  and  _331
REMARK  121  A    between atoms: _334  and  _336
REMARK  122  A    between atoms: _336  and  _337
REMARK  123  A    between atoms: _336  and  _339
REMARK  124  A    between atoms: _339  and  _340
REMARK  125  A    between atoms: _343  and  _345
REMARK  126  A    between atoms: _345  and  _346
REMARK  127  A    between atoms: _345  and  _348
REMARK  128  A    between atoms: _348  and  _349
REMARK  129  A    between atoms: _353  and  _354
REMARK  130  A    between atoms: _360  and  _361
REMARK  131  A    between atoms: _366  and  _368
REMARK  132  A    between atoms: _368  and  _369
REMARK  133  A    between atoms: _368  and  _371
REMARK  134  A    between atoms: _371  and  _372
REMARK  135  A    between atoms: _375  and  _377
REMARK  136  A    between atoms: _377  and  _378
REMARK  137  A    between atoms: _377  and  _380
REMARK  138  A    between atoms: _380  and  _381
REMARK  139  A    between atoms: _384  and  _386
REMARK  140  A    between atoms: _386  and  _387
REMARK  141  A    between atoms: _386  and  _389
REMARK  142  A    between atoms: _391  and  _393
REMARK  143  A    between atoms: _393  and  _394
REMARK  144  A    between atoms: _393  and  _396
REMARK  145  A    between atoms: _399  and  _401
REMARK  146  A    between atoms: _401  and  _402
REMARK  147  A    between atoms: _401  and  _404
REMARK  148  A    between atoms: _404  and  _405
REMARK  149  A    between atoms: _415  and  _417
REMARK  150  A    between atoms: _417  and  _418
REMARK  151  A    between atoms: _417  and  _420
REMARK  152  A    between atoms: _420  and  _421
REMARK  153  A    between atoms: _426  and  _428
REMARK  154  A    between atoms: _428  and  _429
REMARK  155  A    between atoms: _428  and  _431
REMARK  156  A    between atoms: _431  and  _432
REMARK  157  A    between atoms: _432  and  _433
REMARK  158  A    between atoms: _433  and  _434
REMARK                            x       y       z     vdW  Elec       q    Type
REMARK                         _______ _______ _______ _____ _____    ______ ____
ROOT
ATOM      1  CB  ASN A   1      -1.980  -7.183  10.460  0.00  0.00    +0.110 C 
ENDROOT
BRANCH   1   2
ATOM      2  CG  ASN A   1      -3.438  -7.390  10.133  0.00  0.00    +0.221 C 
ATOM      3  OD1 ASN A   1      -4.089  -8.257  10.701  0.00  0.00    -0.275 OA
ATOM      4  ND2 ASN A   1      -3.961  -6.596   9.210  0.00  0.00    -0.329 N 
ATOM      5 HD21 ASN A   1      -4.961  -6.697   8.943  0.00  0.00    +0.145 HD
ATOM      6 HD22 ASN A   1      -3.371  -5.872   8.752  0.00  0.00    +0.145 HD
ENDBRANCH   1   2
BRANCH   1   7
ATOM      7  CA  ASN A   1      -1.495  -8.085  11.607  0.00  0.00    +0.142 C 
BRANCH   7   8
ATOM      8  N   ASN A   1      -1.824  -9.478  11.335  0.00  0.00    -0.239 NA
ATOM      9  H   ASN A   1      -2.715  -9.710  10.852  0.00  0.00    +0.142 HD
ENDBRANCH   7   8
BRANCH   7  10
ATOM     10  C   ASN A   1      -2.073  -7.634  12.962  0.00  0.00    +0.225 C 
ATOM     11  O   ASN A   1      -2.757  -6.624  13.036  0.00  0.00    -0.287 OA
ENDBRANCH   7  10
ENDBRANCH   1   7
TORSDOF 4
REMARK  Name = ../refined-set-2016/3dd8/3dd8_pocket.pdb
REMARK  158 active torsions:
REMARK  status: ('A' for Active; 'I' for Inactive)
REMARK    1  A    between atoms: _1  and  _3
REMARK    2  A    between atoms: _3  and  _4
REMARK    3  A    between atoms: _3  and  _6
REMARK    4  A    between atoms: _6  and  _7
REMARK    5  A    between atoms: _17  and  _19
REMARK    6  A    between atoms: _19  and  _20
REMARK    7  A    between atoms: _19  and  _22
REMARK    8  A    between atoms: _22  and  _23
REMARK    9  A    between atoms: _28  and  _29
REMARK   10  A    between atoms: _31  and  _33
REMARK   11  A    between atoms: _33  and  _34
REMARK   12  A    between atoms: _33  and  _36
REMARK   13  A    between atoms: _36  and  _37
REMARK   14  A    between atoms: _43  and  _45
REMARK   15  A    between atoms: _45  and  _46
REMARK   16  A    between atoms: _45  and  _48
REMARK   17  A    between atoms: _48  and  _49
REMARK   18  A    between atoms: _52  and  _53
REMARK   19  A    between atoms: _58  and  _60
REMARK   20  A    between atoms: _60  and  _61
REMARK   21  A    between atoms: _60  and  _63
REMARK   22  A    between atoms: _63  and  _64
REMARK   23  A    between atoms: _69  and  _71
REMARK   24  A    between atoms: _71  and  _72
REMARK   25  A    between atoms: _71  and  _74
REMARK   26  A    between atoms: _74  and  _75
REMARK   27  A    between atoms: _80  and  _82
REMARK   28  A    between atoms: _82  and  _83
REMARK   29  A    between atoms: _82  and  _85
REMARK   30  A    between atoms: _85  and  _86
REMARK   31  A    between atoms: _91  and  _93
REMARK   32  A    between atoms: _93  and  _94
REMARK   33  A    between atoms: _93  and  _96
REMARK   34  A    between atoms: _96  and  _97
REMARK   35  A    between atoms: _100  and  _102
REMARK   36  A    between atoms: _102  and  _103
REMARK   37  A    between atoms: _102  and  _105
REMARK   38  A    between atoms: _105  and  _106
REMARK   39  A    between atoms: _106  and  _107
REMARK   40  A    between atoms: _112  and  _114
REMARK   41  A    between atoms: _114  and  _115
REMARK   42  A    between atoms: _114  and  _117
REMARK   43  A    between atoms: _117  and  _118
REMARK   44  A    between atoms: _124  and  _126
REMARK   45  A    between atoms: _137  and  _140
REMARK   46  A    between atoms: _140  and  _141
REMARK   47  A    between atoms: _149  and  _150
REMARK   48  A    between atoms: _158  and  _160
REMARK   49  A    between atoms: _160  and  _161
REMARK   50  A    between atoms: _160  and  _163
REMARK   51  A    between atoms: _163  and  _164
REMARK   52  A    between atoms: _164  and  _165
REMARK   53  A    between atoms: _168  and  _170
REMARK   54  A    between atoms: _170  and  _171
REMARK   55  A    between atoms: _170  and  _173
REMARK   56  A    between atoms: _173  and  _174
REMARK   57  A    between atoms: _179  and  _181
REMARK   58  A    between atoms: _181  and  _182
REMARK   59  A    between atoms: _181  and  _184
REMARK   60  A    between atoms: _184  and  _185
REMARK   61  A    between atoms: _185  and  _186
REMARK   62  A    between atoms: _189  and  _191
REMARK   63  A    between atoms: _191  and  _192
REMARK   64  A    between atoms: _191  and  _194
REMARK   65  A    between atoms: _194  and  _195
REMARK   66  A    between atoms: _198  and  _200
REMARK   67  A    between atoms: _200  and  _201
REMARK   68  A    between atoms: _200  and  _203
REMARK   69  A    between atoms: _203  and  _204
REMARK   70  A    between atoms: _205  and  ZN_443
REMARK   71  A    between atoms: _209  and  _211
REMARK   72  A    between atoms: _211  and  _212
REMARK   73  A    between atoms: _211  and  _214
REMARK   74  A    between atoms: _214  and  _215
REMARK   75  A    between atoms: _218  and  _220
REMARK   76  A    between atoms: _220  and  _221
REMARK   77  A    between atoms: _220  and  _223
REMARK   78  A    between atoms: _226  and  _228
REMARK   79  A    between atoms: _228  and  _229
REMARK   80  A    between atoms: _228  and  _231
REMARK   81  A    between atoms: _231  and  _232
REMARK   82  A    between atoms: _237  and  _239
REMARK   83  A    between atoms: _239  and  _240
REMARK   84  A    between atoms: _239  and  _242
REMARK   85  A    between atoms: _242  and  _243
REMARK   86  A    between atoms: _249  and  _251
REMARK   87  A    between atoms: _251  and  _252
REMARK   88  A    between atoms: _254  and  _256
REMARK   89  A    between atoms: _256  and  _257
REMARK   90  A    between atoms: _260  and  _262
REMARK   91  A    between atoms: _262  and  _263
REMARK   92  A    between atoms: _262  and  _265
REMARK   93  A    between atoms: _268  and  _270
REMARK   94  A    between atoms: _270  and  _271
REMARK   95  A    between atoms: _270  and  _273
REMARK   96  A    between atoms: _273  and  _274
REMARK   97  A    between atoms: _274  and  _275
REMARK   98  A    between atoms: _280  and  _282
REMARK   99  A    between atoms: _282  and  _283
REMARK  100  A    between atoms: _282  and  _285
REMARK  101  A    between atoms: _285  and  _286
REMARK  102  A    between atoms: _289  and  _291
REMARK  103  A    between atoms: _291  and  _292
REMARK  104  A    between atoms: _295  and  _297
REMARK  105  A    between atoms: _297  and  _298
REMARK  106  A    between atoms: _297  and  _300
REMARK  107  A    between atoms: _303  and  _305
REMARK  108  A    between atoms: _305  and  _306
REMARK  109  A    between atoms: _305  and  _308
REMARK  110  A    between atoms: _308  and  _309
REMARK  111  A    between atoms: _312  and  _314
REMARK  112  A    between atoms: _314  and  _315
REMARK  113  A    between atoms: _317  and  _319
REMARK  114  A    between atoms: _319  and  _320
REMARK  115  A    between atoms: _319  and  _322
REMARK  116  A    between atoms: _322  and  _323
REMARK  117  A    between atoms: _325  and  _327
REMARK  118  A    between atoms: _327  and  _328
REMARK  119  A    between atoms: _327  and  _330
REMARK  120  A    between atoms: _330  and  _331
REMARK  121  A    between atoms: _334  and  _336
REMARK  122  A    between atoms: _336  and  _337
REMARK  123  A    between atoms: _336  and  _339
REMARK  124  A    between atoms: _339  and  _340
REMARK  125  A    between atoms: _343  and  _345
REMARK  126  A    between atoms: _345  and  _346
REMARK  127  A    between atoms: _345  and  _348
REMARK  128  A    between atoms: _348  and  _349
REMARK  129  A    between atoms: _353  and  _354
REMARK  130  A    between atoms: _360  and  _361
REMARK  131  A    between atoms: _366  and  _368
REMARK  132  A    between atoms: _368  and  _369
REMARK  133  A    between atoms: _368  and  _371
REMARK  134  A    between atoms: _371  and  _372
REMARK  135  A    between atoms: _375  and  _377
REMARK  136  A    between atoms: _377  and  _378
REMARK  137  A    between atoms: _377  and  _380
REMARK  138  A    between atoms: _380  and  _381
REMARK  139  A    between atoms: _384  and  _386
REMARK  140  A    between atoms: _386  and  _387
REMARK  141  A    between atoms: _386  and  _389
REMARK  142  A    between atoms: _391  and  _393
REMARK  143  A    between atoms: _393  and  _394
REMARK  144  A    between atoms: _393  and  _396
REMARK  145  A    between atoms: _399  and  _401
REMARK  146  A    between atoms: _401  and  _402
REMARK  147  A    between atoms: _401  and  _404
REMARK  148  A    between atoms: _404  and  _405
REMARK  149  A    between atoms: _415  and  _417
REMARK  150  A    between atoms: _417  and  _418
REMARK  151  A    between atoms: _417  and  _420
REMARK  152  A    between atoms: _420  and  _421
REMARK  153  A    between atoms: _426  and  _428
REMARK  154  A    between atoms: _428  and  _429
REMARK  155  A    between atoms: _428  and  _431
REMARK  156  A    between atoms: _431  and  _432
REMARK  157  A    between atoms: _432  and  _433
REMARK  158  A    between atoms: _433  and  _434
REMARK                            x       y       z     vdW  Elec       q    Type
REMARK                         _______ _______ _______ _____ _____    ______ ____
ROOT
ATOM      1  NE  ARG A   1       2.315  -3.684  21.208  0.00  0.00    +0.330 N 
ATOM      2  CZ  ARG A   1       2.485  -2.689  22.080  0.00  0.00    +0.000 C 
ATOM      3  NH2 ARG A   1       3.690  -2.461  22.589  0.00  0.00    +0.330 N 
ATOM      4 HH21 ARG A   1       3.829  -1.687  23.269  0.00  0.00    +0.000 HD
ATOM      5 HH22 ARG A   1       4.495  -3.057  22.307  0.00  0.00    +0.000 HD
ATOM      6  NH1 ARG A   1       1.454  -1.943  22.472  0.00  0.00    +0.330 N 
ATOM      7 HH11 ARG A   1       1.600  -1.170  23.152  0.00  0.00    +0.000 HD
ATOM      8 HH12 ARG A   1       0.503  -2.133  22.098  0.00  0.00    +0.000 HD
ATOM      9  HE  ARG A   1       3.151  -4.249  20.956  0.00  0.00    +0.000 HD
ENDROOT
BRANCH   1  10
ATOM     10  CD  ARG A   1       1.044  -4.042  20.579  0.00  0.00    +0.000 C 
BRANCH  10  11
ATOM     11  CG  ARG A   1       1.108  -5.413  19.915  0.00  0.00    +0.000 C 
BRANCH  11  12
ATOM     12  CB  ARG A   1      -0.022  -5.609  18.887  0.00  0.00    +0.000 C 
BRANCH  12  13
ATOM     13  CA  ARG A   1      -0.205  -7.064  18.411  0.00  0.00    +0.000 C 
BRANCH  13  14
ATOM     14  N   ARG A   1      -1.151  -7.123  17.298  0.00  0.00    +0.000 NA
ATOM     15  H   ARG A   1      -1.904  -6.408  17.243  0.00  0.00    +0.000 HD
ENDBRANCH  13  14
BRANCH  13  16
ATOM     16  C   ARG A   1      -0.724  -7.946  19.549  0.00  0.00    +0.000 C 
ATOM     17  O   ARG A   1      -1.919  -7.940  19.834  0.00  0.00    +0.000 OA
ENDBRANCH  13  16
ENDBRANCH  12  13
ENDBRANCH  11  12
ENDBRANCH  10  11
ENDBRANCH   1  10
TORSDOF 6
REMARK  Name = ../refined-set-2016/3dd8/3dd8_pocket.pdb
REMARK  158 active torsions:
REMARK  status: ('A' for Active; 'I' for Inactive)
REMARK    1  A    between atoms: _1  and  _3
REMARK    2  A    between atoms: _3  and  _4
REMARK    3  A    between atoms: _3  and  _6
REMARK    4  A    between atoms: _6  and  _7
REMARK    5  A    between atoms: _17  and  _19
REMARK    6  A    between atoms: _19  and  _20
REMARK    7  A    between atoms: _19  and  _22
REMARK    8  A    between atoms: _22  and  _23
REMARK    9  A    between atoms: _28  and  _29
REMARK   10  A    between atoms: _31  and  _33
REMARK   11  A    between atoms: _33  and  _34
REMARK   12  A    between atoms: _33  and  _36
REMARK   13  A    between atoms: _36  and  _37
REMARK   14  A    between atoms: _43  and  _45
REMARK   15  A    between atoms: _45  and  _46
REMARK   16  A    between atoms: _45  and  _48
REMARK   17  A    between atoms: _48  and  _49
REMARK   18  A    between atoms: _52  and  _53
REMARK   19  A    between atoms: _58  and  _60
REMARK   20  A    between atoms: _60  and  _61
REMARK   21  A    between atoms: _60  and  _63
REMARK   22  A    between atoms: _63  and  _64
REMARK   23  A    between atoms: _69  and  _71
REMARK   24  A    between atoms: _71  and  _72
REMARK   25  A    between atoms: _71  and  _74
REMARK   26  A    between atoms: _74  and  _75
REMARK   27  A    between atoms: _80  and  _82
REMARK   28  A    between atoms: _82  and  _83
REMARK   29  A    between atoms: _82  and  _85
REMARK   30  A    between atoms: _85  and  _86
REMARK   31  A    between atoms: _91  and  _93
REMARK   32  A    between atoms: _93  and  _94
REMARK   33  A    between atoms: _93  and  _96
REMARK   34  A    between atoms: _96  and  _97
REMARK   35  A    between atoms: _100  and  _102
REMARK   36  A    between atoms: _102  and  _103
REMARK   37  A    between atoms: _102  and  _105
REMARK   38  A    between atoms: _105  and  _106
REMARK   39  A    between atoms: _106  and  _107
REMARK   40  A    between atoms: _112  and  _114
REMARK   41  A    between atoms: _114  and  _115
REMARK   42  A    between atoms: _114  and  _117
REMARK   43  A    between atoms: _117  and  _118
REMARK   44  A    between atoms: _124  and  _126
REMARK   45  A    between atoms: _137  and  _140
REMARK   46  A    between atoms: _140  and  _141
REMARK   47  A    between atoms: _149  and  _150
REMARK   48  A    between atoms: _158  and  _160
REMARK   49  A    between atoms: _160  and  _161
REMARK   50  A    between atoms: _160  and  _163
REMARK   51  A    between atoms: _163  and  _164
REMARK   52  A    between atoms: _164  and  _165
REMARK   53  A    between atoms: _168  and  _170
REMARK   54  A    between atoms: _170  and  _171
REMARK   55  A    between atoms: _170  and  _173
REMARK   56  A    between atoms: _173  and  _174
REMARK   57  A    between atoms: _179  and  _181
REMARK   58  A    between atoms: _181  and  _182
REMARK   59  A    between atoms: _181  and  _184
REMARK   60  A    between atoms: _184  and  _185
REMARK   61  A    between atoms: _185  and  _186
REMARK   62  A    between atoms: _189  and  _191
REMARK   63  A    between atoms: _191  and  _192
REMARK   64  A    between atoms: _191  and  _194
REMARK   65  A    between atoms: _194  and  _195
REMARK   66  A    between atoms: _198  and  _200
REMARK   67  A    between atoms: _200  and  _201
REMARK   68  A    between atoms: _200  and  _203
REMARK   69  A    between atoms: _203  and  _204
REMARK   70  A    between atoms: _205  and  ZN_443
REMARK   71  A    between atoms: _209  and  _211
REMARK   72  A    between atoms: _211  and  _212
REMARK   73  A    between atoms: _211  and  _214
REMARK   74  A    between atoms: _214  and  _215
REMARK   75  A    between atoms: _218  and  _220
REMARK   76  A    between atoms: _220  and  _221
REMARK   77  A    between atoms: _220  and  _223
REMARK   78  A    between atoms: _226  and  _228
REMARK   79  A    between atoms: _228  and  _229
REMARK   80  A    between atoms: _228  and  _231
REMARK   81  A    between atoms: _231  and  _232
REMARK   82  A    between atoms: _237  and  _239
REMARK   83  A    between atoms: _239  and  _240
REMARK   84  A    between atoms: _239  and  _242
REMARK   85  A    between atoms: _242  and  _243
REMARK   86  A    between atoms: _249  and  _251
REMARK   87  A    between atoms: _251  and  _252
REMARK   88  A    between atoms: _254  and  _256
REMARK   89  A    between atoms: _256  and  _257
REMARK   90  A    between atoms: _260  and  _262
REMARK   91  A    between atoms: _262  and  _263
REMARK   92  A    between atoms: _262  and  _265
REMARK   93  A    between atoms: _268  and  _270
REMARK   94  A    between atoms: _270  and  _271
REMARK   95  A    between atoms: _270  and  _273
REMARK   96  A    between atoms: _273  and  _274
REMARK   97  A    between atoms: _274  and  _275
REMARK   98  A    between atoms: _280  and  _282
REMARK   99  A    between atoms: _282  and  _283
REMARK  100  A    between atoms: _282  and  _285
REMARK  101  A    between atoms: _285  and  _286
REMARK  102  A    between atoms: _289  and  _291
REMARK  103  A    between atoms: _291  and  _292
REMARK  104  A    between atoms: _295  and  _297
REMARK  105  A    between atoms: _297  and  _298
REMARK  106  A    between atoms: _297  and  _300
REMARK  107  A    between atoms: _303  and  _305
REMARK  108  A    between atoms: _305  and  _306
REMARK  109  A    between atoms: _305  and  _308
REMARK  110  A    between atoms: _308  and  _309
REMARK  111  A    between atoms: _312  and  _314
REMARK  112  A    between atoms: _314  and  _315
REMARK  113  A    between atoms: _317  and  _319
REMARK  114  A    between atoms: _319  and  _320
REMARK  115  A    between atoms: _319  and  _322
REMARK  116  A    between atoms: _322  and  _323
REMARK  117  A    between atoms: _325  and  _327
REMARK  118  A    between atoms: _327  and  _328
REMARK  119  A    between atoms: _327  and  _330
REMARK  120  A    between atoms: _330  and  _331
REMARK  121  A    between atoms: _334  and  _336
REMARK  122  A    between atoms: _336  and  _337
REMARK  123  A    between atoms: _336  and  _339
REMARK  124  A    between atoms: _339  and  _340
REMARK  125  A    between atoms: _343  and  _345
REMARK  126  A    between atoms: _345  and  _346
REMARK  127  A    between atoms: _345  and  _348
REMARK  128  A    between atoms: _348  and  _349
REMARK  129  A    between atoms: _353  and  _354
REMARK  130  A    between atoms: _360  and  _361
REMARK  131  A    between atoms: _366  and  _368
REMARK  132  A    between atoms: _368  and  _369
REMARK  133  A    between atoms: _368  and  _371
REMARK  134  A    between atoms: _371  and  _372
REMARK  135  A    between atoms: _375  and  _377
REMARK  136  A    between atoms: _377  and  _378
REMARK  137  A    between atoms: _377  and  _380
REMARK  138  A    between atoms: _380  and  _381
REMARK  139  A    between atoms: _384  and  _386
REMARK  140  A    between atoms: _386  and  _387
REMARK  141  A    between atoms: _386  and  _389
REMARK  142  A    between atoms: _391  and  _393
REMARK  143  A    between atoms: _393  and  _394
REMARK  144  A    between atoms: _393  and  _396
REMARK  145  A    between atoms: _399  and  _401
REMARK  146  A    between atoms: _401  and  _402
REMARK  147  A    between atoms: _401  and  _404
REMARK  148  A    between atoms: _404  and  _405
REMARK  149  A    between atoms: _415  and  _417
REMARK  150  A    between atoms: _417  and  _418
REMARK  151  A    between atoms: _417  and  _420
REMARK  152  A    between atoms: _420  and  _421
REMARK  153  A    between atoms: _426  and  _428
REMARK  154  A    between atoms: _428  and  _429
REMARK  155  A    between atoms: _428  and  _431
REMARK  156  A    between atoms: _431  and  _432
REMARK  157  A    between atoms: _432  and  _433
REMARK  158  A    between atoms: _433  and  _434
REMARK                            x       y       z     vdW  Elec       q    Type
REMARK                         _______ _______ _______ _____ _____    ______ ____
ROOT
ATOM      1  O   HOH     1      -1.269  -3.929  15.757  0.00  0.00    +0.000 OA
ENDROOT
TORSDOF 0
REMARK  Name = ../refined-set-2016/3dd8/3dd8_pocket.pdb
REMARK  158 active torsions:
REMARK  status: ('A' for Active; 'I' for Inactive)
REMARK    1  A    between atoms: _1  and  _3
REMARK    2  A    between atoms: _3  and  _4
REMARK    3  A    between atoms: _3  and  _6
REMARK    4  A    between atoms: _6  and  _7
REMARK    5  A    between atoms: _17  and  _19
REMARK    6  A    between atoms: _19  and  _20
REMARK    7  A    between atoms: _19  and  _22
REMARK    8  A    between atoms: _22  and  _23
REMARK    9  A    between atoms: _28  and  _29
REMARK   10  A    between atoms: _31  and  _33
REMARK   11  A    between atoms: _33  and  _34
REMARK   12  A    between atoms: _33  and  _36
REMARK   13  A    between atoms: _36  and  _37
REMARK   14  A    between atoms: _43  and  _45
REMARK   15  A    between atoms: _45  and  _46
REMARK   16  A    between atoms: _45  and  _48
REMARK   17  A    between atoms: _48  and  _49
REMARK   18  A    between atoms: _52  and  _53
REMARK   19  A    between atoms: _58  and  _60
REMARK   20  A    between atoms: _60  and  _61
REMARK   21  A    between atoms: _60  and  _63
REMARK   22  A    between atoms: _63  and  _64
REMARK   23  A    between atoms: _69  and  _71
REMARK   24  A    between atoms: _71  and  _72
REMARK   25  A    between atoms: _71  and  _74
REMARK   26  A    between atoms: _74  and  _75
REMARK   27  A    between atoms: _80  and  _82
REMARK   28  A    between atoms: _82  and  _83
REMARK   29  A    between atoms: _82  and  _85
REMARK   30  A    between atoms: _85  and  _86
REMARK   31  A    between atoms: _91  and  _93
REMARK   32  A    between atoms: _93  and  _94
REMARK   33  A    between atoms: _93  and  _96
REMARK   34  A    between atoms: _96  and  _97
REMARK   35  A    between atoms: _100  and  _102
REMARK   36  A    between atoms: _102  and  _103
REMARK   37  A    between atoms: _102  and  _105
REMARK   38  A    between atoms: _105  and  _106
REMARK   39  A    between atoms: _106  and  _107
REMARK   40  A    between atoms: _112  and  _114
REMARK   41  A    between atoms: _114  and  _115
REMARK   42  A    between atoms: _114  and  _117
REMARK   43  A    between atoms: _117  and  _118
REMARK   44  A    between atoms: _124  and  _126
REMARK   45  A    between atoms: _137  and  _140
REMARK   46  A    between atoms: _140  and  _141
REMARK   47  A    between atoms: _149  and  _150
REMARK   48  A    between atoms: _158  and  _160
REMARK   49  A    between atoms: _160  and  _161
REMARK   50  A    between atoms: _160  and  _163
REMARK   51  A    between atoms: _163  and  _164
REMARK   52  A    between atoms: _164  and  _165
REMARK   53  A    between atoms: _168  and  _170
REMARK   54  A    between atoms: _170  and  _171
REMARK   55  A    between atoms: _170  and  _173
REMARK   56  A    between atoms: _173  and  _174
REMARK   57  A    between atoms: _179  and  _181
REMARK   58  A    between atoms: _181  and  _182
REMARK   59  A    between atoms: _181  and  _184
REMARK   60  A    between atoms: _184  and  _185
REMARK   61  A    between atoms: _185  and  _186
REMARK   62  A    between atoms: _189  and  _191
REMARK   63  A    between atoms: _191  and  _192
REMARK   64  A    between atoms: _191  and  _194
REMARK   65  A    between atoms: _194  and  _195
REMARK   66  A    between atoms: _198  and  _200
REMARK   67  A    between atoms: _200  and  _201
REMARK   68  A    between atoms: _200  and  _203
REMARK   69  A    between atoms: _203  and  _204
REMARK   70  A    between atoms: _205  and  ZN_443
REMARK   71  A    between atoms: _209  and  _211
REMARK   72  A    between atoms: _211  and  _212
REMARK   73  A    between atoms: _211  and  _214
REMARK   74  A    between atoms: _214  and  _215
REMARK   75  A    between atoms: _218  and  _220
REMARK   76  A    between atoms: _220  and  _221
REMARK   77  A    between atoms: _220  and  _223
REMARK   78  A    between atoms: _226  and  _228
REMARK   79  A    between atoms: _228  and  _229
REMARK   80  A    between atoms: _228  and  _231
REMARK   81  A    between atoms: _231  and  _232
REMARK   82  A    between atoms: _237  and  _239
REMARK   83  A    between atoms: _239  and  _240
REMARK   84  A    between atoms: _239  and  _242
REMARK   85  A    between atoms: _242  and  _243
REMARK   86  A    between atoms: _249  and  _251
REMARK   87  A    between atoms: _251  and  _252
REMARK   88  A    between atoms: _254  and  _256
REMARK   89  A    between atoms: _256  and  _257
REMARK   90  A    between atoms: _260  and  _262
REMARK   91  A    between atoms: _262  and  _263
REMARK   92  A    between atoms: _262  and  _265
REMARK   93  A    between atoms: _268  and  _270
REMARK   94  A    between atoms: _270  and  _271
REMARK   95  A    between atoms: _270  and  _273
REMARK   96  A    between atoms: _273  and  _274
REMARK   97  A    between atoms: _274  and  _275
REMARK   98  A    between atoms: _280  and  _282
REMARK   99  A    between atoms: _282  and  _283
REMARK  100  A    between atoms: _282  and  _285
REMARK  101  A    between atoms: _285  and  _286
REMARK  102  A    between atoms: _289  and  _291
REMARK  103  A    between atoms: _291  and  _292
REMARK  104  A    between atoms: _295  and  _297
REMARK  105  A    between atoms: _297  and  _298
REMARK  106  A    between atoms: _297  and  _300
REMARK  107  A    between atoms: _303  and  _305
REMARK  108  A    between atoms: _305  and  _306
REMARK  109  A    between atoms: _305  and  _308
REMARK  110  A    between atoms: _308  and  _309
REMARK  111  A    between atoms: _312  and  _314
REMARK  112  A    between atoms: _314  and  _315
REMARK  113  A    between atoms: _317  and  _319
REMARK  114  A    between atoms: _319  and  _320
REMARK  115  A    between atoms: _319  and  _322
REMARK  116  A    between atoms: _322  and  _323
REMARK  117  A    between atoms: _325  and  _327
REMARK  118  A    between atoms: _327  and  _328
REMARK  119  A    between atoms: _327  and  _330
REMARK  120  A    between atoms: _330  and  _331
REMARK  121  A    between atoms: _334  and  _336
REMARK  122  A    between atoms: _336  and  _337
REMARK  123  A    between atoms: _336  and  _339
REMARK  124  A    between atoms: _339  and  _340
REMARK  125  A    between atoms: _343  and  _345
REMARK  126  A    between atoms: _345  and  _346
REMARK  127  A    between atoms: _345  and  _348
REMARK  128  A    between atoms: _348  and  _349
REMARK  129  A    between atoms: _353  and  _354
REMARK  130  A    between atoms: _360  and  _361
REMARK  131  A    between atoms: _366  and  _368
REMARK  132  A    between atoms: _368  and  _369
REMARK  133  A    between atoms: _368  and  _371
REMARK  134  A    between atoms: _371  and  _372
REMARK  135  A    between atoms: _375  and  _377
REMARK  136  A    between atoms: _377  and  _378
REMARK  137  A    between atoms: _377  and  _380
REMARK  138  A    between atoms: _380  and  _381
REMARK  139  A    between atoms: _384  and  _386
REMARK  140  A    between atoms: _386  and  _387
REMARK  141  A    between atoms: _386  and  _389
REMARK  142  A    between atoms: _391  and  _393
REMARK  143  A    between atoms: _393  and  _394
REMARK  144  A    between atoms: _393  and  _396
REMARK  145  A    between atoms: _399  and  _401
REMARK  146  A    between atoms: _401  and  _402
REMARK  147  A    between atoms: _401  and  _404
REMARK  148  A    between atoms: _404  and  _405
REMARK  149  A    between atoms: _415  and  _417
REMARK  150  A    between atoms: _417  and  _418
REMARK  151  A    between atoms: _417  and  _420
REMARK  152  A    between atoms: _420  and  _421
REMARK  153  A    between atoms: _426  and  _428
REMARK  154  A    between atoms: _428  and  _429
REMARK  155  A    between atoms: _428  and  _431
REMARK  156  A    between atoms: _431  and  _432
REMARK  157  A    between atoms: _432  and  _433
REMARK  158  A    between atoms: _433  and  _434
REMARK                            x       y       z     vdW  Elec       q    Type
REMARK                         _______ _______ _______ _____ _____    ______ ____
ROOT
ATOM      1  O   HOH     1      -7.000   6.033   6.210  0.00  0.00    +0.000 OA
ENDROOT
TORSDOF 0
REMARK  Name = ../refined-set-2016/3dd8/3dd8_pocket.pdb
REMARK  158 active torsions:
REMARK  status: ('A' for Active; 'I' for Inactive)
REMARK    1  A    between atoms: _1  and  _3
REMARK    2  A    between atoms: _3  and  _4
REMARK    3  A    between atoms: _3  and  _6
REMARK    4  A    between atoms: _6  and  _7
REMARK    5  A    between atoms: _17  and  _19
REMARK    6  A    between atoms: _19  and  _20
REMARK    7  A    between atoms: _19  and  _22
REMARK    8  A    between atoms: _22  and  _23
REMARK    9  A    between atoms: _28  and  _29
REMARK   10  A    between atoms: _31  and  _33
REMARK   11  A    between atoms: _33  and  _34
REMARK   12  A    between atoms: _33  and  _36
REMARK   13  A    between atoms: _36  and  _37
REMARK   14  A    between atoms: _43  and  _45
REMARK   15  A    between atoms: _45  and  _46
REMARK   16  A    between atoms: _45  and  _48
REMARK   17  A    between atoms: _48  and  _49
REMARK   18  A    between atoms: _52  and  _53
REMARK   19  A    between atoms: _58  and  _60
REMARK   20  A    between atoms: _60  and  _61
REMARK   21  A    between atoms: _60  and  _63
REMARK   22  A    between atoms: _63  and  _64
REMARK   23  A    between atoms: _69  and  _71
REMARK   24  A    between atoms: _71  and  _72
REMARK   25  A    between atoms: _71  and  _74
REMARK   26  A    between atoms: _74  and  _75
REMARK   27  A    between atoms: _80  and  _82
REMARK   28  A    between atoms: _82  and  _83
REMARK   29  A    between atoms: _82  and  _85
REMARK   30  A    between atoms: _85  and  _86
REMARK   31  A    between atoms: _91  and  _93
REMARK   32  A    between atoms: _93  and  _94
REMARK   33  A    between atoms: _93  and  _96
REMARK   34  A    between atoms: _96  and  _97
REMARK   35  A    between atoms: _100  and  _102
REMARK   36  A    between atoms: _102  and  _103
REMARK   37  A    between atoms: _102  and  _105
REMARK   38  A    between atoms: _105  and  _106
REMARK   39  A    between atoms: _106  and  _107
REMARK   40  A    between atoms: _112  and  _114
REMARK   41  A    between atoms: _114  and  _115
REMARK   42  A    between atoms: _114  and  _117
REMARK   43  A    between atoms: _117  and  _118
REMARK   44  A    between atoms: _124  and  _126
REMARK   45  A    between atoms: _137  and  _140
REMARK   46  A    between atoms: _140  and  _141
REMARK   47  A    between atoms: _149  and  _150
REMARK   48  A    between atoms: _158  and  _160
REMARK   49  A    between atoms: _160  and  _161
REMARK   50  A    between atoms: _160  and  _163
REMARK   51  A    between atoms: _163  and  _164
REMARK   52  A    between atoms: _164  and  _165
REMARK   53  A    between atoms: _168  and  _170
REMARK   54  A    between atoms: _170  and  _171
REMARK   55  A    between atoms: _170  and  _173
REMARK   56  A    between atoms: _173  and  _174
REMARK   57  A    between atoms: _179  and  _181
REMARK   58  A    between atoms: _181  and  _182
REMARK   59  A    between atoms: _181  and  _184
REMARK   60  A    between atoms: _184  and  _185
REMARK   61  A    between atoms: _185  and  _186
REMARK   62  A    between atoms: _189  and  _191
REMARK   63  A    between atoms: _191  and  _192
REMARK   64  A    between atoms: _191  and  _194
REMARK   65  A    between atoms: _194  and  _195
REMARK   66  A    between atoms: _198  and  _200
REMARK   67  A    between atoms: _200  and  _201
REMARK   68  A    between atoms: _200  and  _203
REMARK   69  A    between atoms: _203  and  _204
REMARK   70  A    between atoms: _205  and  ZN_443
REMARK   71  A    between atoms: _209  and  _211
REMARK   72  A    between atoms: _211  and  _212
REMARK   73  A    between atoms: _211  and  _214
REMARK   74  A    between atoms: _214  and  _215
REMARK   75  A    between atoms: _218  and  _220
REMARK   76  A    between atoms: _220  and  _221
REMARK   77  A    between atoms: _220  and  _223
REMARK   78  A    between atoms: _226  and  _228
REMARK   79  A    between atoms: _228  and  _229
REMARK   80  A    between atoms: _228  and  _231
REMARK   81  A    between atoms: _231  and  _232
REMARK   82  A    between atoms: _237  and  _239
REMARK   83  A    between atoms: _239  and  _240
REMARK   84  A    between atoms: _239  and  _242
REMARK   85  A    between atoms: _242  and  _243
REMARK   86  A    between atoms: _249  and  _251
REMARK   87  A    between atoms: _251  and  _252
REMARK   88  A    between atoms: _254  and  _256
REMARK   89  A    between atoms: _256  and  _257
REMARK   90  A    between atoms: _260  and  _262
REMARK   91  A    between atoms: _262  and  _263
REMARK   92  A    between atoms: _262  and  _265
REMARK   93  A    between atoms: _268  and  _270
REMARK   94  A    between atoms: _270  and  _271
REMARK   95  A    between atoms: _270  and  _273
REMARK   96  A    between atoms: _273  and  _274
REMARK   97  A    between atoms: _274  and  _275
REMARK   98  A    between atoms: _280  and  _282
REMARK   99  A    between atoms: _282  and  _283
REMARK  100  A    between atoms: _282  and  _285
REMARK  101  A    between atoms: _285  and  _286
REMARK  102  A    between atoms: _289  and  _291
REMARK  103  A    between atoms: _291  and  _292
REMARK  104  A    between atoms: _295  and  _297
REMARK  105  A    between atoms: _297  and  _298
REMARK  106  A    between atoms: _297  and  _300
REMARK  107  A    between atoms: _303  and  _305
REMARK  108  A    between atoms: _305  and  _306
REMARK  109  A    between atoms: _305  and  _308
REMARK  110  A    between atoms: _308  and  _309
REMARK  111  A    between atoms: _312  and  _314
REMARK  112  A    between atoms: _314  and  _315
REMARK  113  A    between atoms: _317  and  _319
REMARK  114  A    between atoms: _319  and  _320
REMARK  115  A    between atoms: _319  and  _322
REMARK  116  A    between atoms: _322  and  _323
REMARK  117  A    between atoms: _325  and  _327
REMARK  118  A    between atoms: _327  and  _328
REMARK  119  A    between atoms: _327  and  _330
REMARK  120  A    between atoms: _330  and  _331
REMARK  121  A    between atoms: _334  and  _336
REMARK  122  A    between atoms: _336  and  _337
REMARK  123  A    between atoms: _336  and  _339
REMARK  124  A    between atoms: _339  and  _340
REMARK  125  A    between atoms: _343  and  _345
REMARK  126  A    between atoms: _345  and  _346
REMARK  127  A    between atoms: _345  and  _348
REMARK  128  A    between atoms: _348  and  _349
REMARK  129  A    between atoms: _353  and  _354
REMARK  130  A    between atoms: _360  and  _361
REMARK  131  A    between atoms: _366  and  _368
REMARK  132  A    between atoms: _368  and  _369
REMARK  133  A    between atoms: _368  and  _371
REMARK  134  A    between atoms: _371  and  _372
REMARK  135  A    between atoms: _375  and  _377
REMARK  136  A    between atoms: _377  and  _378
REMARK  137  A    between atoms: _377  and  _380
REMARK  138  A    between atoms: _380  and  _381
REMARK  139  A    between atoms: _384  and  _386
REMARK  140  A    between atoms: _386  and  _387
REMARK  141  A    between atoms: _386  and  _389
REMARK  142  A    between atoms: _391  and  _393
REMARK  143  A    between atoms: _393  and  _394
REMARK  144  A    between atoms: _393  and  _396
REMARK  145  A    between atoms: _399  and  _401
REMARK  146  A    between atoms: _401  and  _402
REMARK  147  A    between atoms: _401  and  _404
REMARK  148  A    between atoms: _404  and  _405
REMARK  149  A    between atoms: _415  and  _417
REMARK  150  A    between atoms: _417  and  _418
REMARK  151  A    between atoms: _417  and  _420
REMARK  152  A    between atoms: _420  and  _421
REMARK  153  A    between atoms: _426  and  _428
REMARK  154  A    between atoms: _428  and  _429
REMARK  155  A    between atoms: _428  and  _431
REMARK  156  A    between atoms: _431  and  _432
REMARK  157  A    between atoms: _432  and  _433
REMARK  158  A    between atoms: _433  and  _434
REMARK                            x       y       z     vdW  Elec       q    Type
REMARK                         _______ _______ _______ _____ _____    ______ ____
ROOT
ATOM      1  O   HOH     1       5.464   7.256  20.345  0.00  0.00    +0.000 OA
ENDROOT
TORSDOF 0
REMARK  Name = ../refined-set-2016/3dd8/3dd8_pocket.pdb
REMARK  158 active torsions:
REMARK  status: ('A' for Active; 'I' for Inactive)
REMARK    1  A    between atoms: _1  and  _3
REMARK    2  A    between atoms: _3  and  _4
REMARK    3  A    between atoms: _3  and  _6
REMARK    4  A    between atoms: _6  and  _7
REMARK    5  A    between atoms: _17  and  _19
REMARK    6  A    between atoms: _19  and  _20
REMARK    7  A    between atoms: _19  and  _22
REMARK    8  A    between atoms: _22  and  _23
REMARK    9  A    between atoms: _28  and  _29
REMARK   10  A    between atoms: _31  and  _33
REMARK   11  A    between atoms: _33  and  _34
REMARK   12  A    between atoms: _33  and  _36
REMARK   13  A    between atoms: _36  and  _37
REMARK   14  A    between atoms: _43  and  _45
REMARK   15  A    between atoms: _45  and  _46
REMARK   16  A    between atoms: _45  and  _48
REMARK   17  A    between atoms: _48  and  _49
REMARK   18  A    between atoms: _52  and  _53
REMARK   19  A    between atoms: _58  and  _60
REMARK   20  A    between atoms: _60  and  _61
REMARK   21  A    between atoms: _60  and  _63
REMARK   22  A    between atoms: _63  and  _64
REMARK   23  A    between atoms: _69  and  _71
REMARK   24  A    between atoms: _71  and  _72
REMARK   25  A    between atoms: _71  and  _74
REMARK   26  A    between atoms: _74  and  _75
REMARK   27  A    between atoms: _80  and  _82
REMARK   28  A    between atoms: _82  and  _83
REMARK   29  A    between atoms: _82  and  _85
REMARK   30  A    between atoms: _85  and  _86
REMARK   31  A    between atoms: _91  and  _93
REMARK   32  A    between atoms: _93  and  _94
REMARK   33  A    between atoms: _93  and  _96
REMARK   34  A    between atoms: _96  and  _97
REMARK   35  A    between atoms: _100  and  _102
REMARK   36  A    between atoms: _102  and  _103
REMARK   37  A    between atoms: _102  and  _105
REMARK   38  A    between atoms: _105  and  _106
REMARK   39  A    between atoms: _106  and  _107
REMARK   40  A    between atoms: _112  and  _114
REMARK   41  A    between atoms: _114  and  _115
REMARK   42  A    between atoms: _114  and  _117
REMARK   43  A    between atoms: _117  and  _118
REMARK   44  A    between atoms: _124  and  _126
REMARK   45  A    between atoms: _137  and  _140
REMARK   46  A    between atoms: _140  and  _141
REMARK   47  A    between atoms: _149  and  _150
REMARK   48  A    between atoms: _158  and  _160
REMARK   49  A    between atoms: _160  and  _161
REMARK   50  A    between atoms: _160  and  _163
REMARK   51  A    between atoms: _163  and  _164
REMARK   52  A    between atoms: _164  and  _165
REMARK   53  A    between atoms: _168  and  _170
REMARK   54  A    between atoms: _170  and  _171
REMARK   55  A    between atoms: _170  and  _173
REMARK   56  A    between atoms: _173  and  _174
REMARK   57  A    between atoms: _179  and  _181
REMARK   58  A    between atoms: _181  and  _182
REMARK   59  A    between atoms: _181  and  _184
REMARK   60  A    between atoms: _184  and  _185
REMARK   61  A    between atoms: _185  and  _186
REMARK   62  A    between atoms: _189  and  _191
REMARK   63  A    between atoms: _191  and  _192
REMARK   64  A    between atoms: _191  and  _194
REMARK   65  A    between atoms: _194  and  _195
REMARK   66  A    between atoms: _198  and  _200
REMARK   67  A    between atoms: _200  and  _201
REMARK   68  A    between atoms: _200  and  _203
REMARK   69  A    between atoms: _203  and  _204
REMARK   70  A    between atoms: _205  and  ZN_443
REMARK   71  A    between atoms: _209  and  _211
REMARK   72  A    between atoms: _211  and  _212
REMARK   73  A    between atoms: _211  and  _214
REMARK   74  A    between atoms: _214  and  _215
REMARK   75  A    between atoms: _218  and  _220
REMARK   76  A    between atoms: _220  and  _221
REMARK   77  A    between atoms: _220  and  _223
REMARK   78  A    between atoms: _226  and  _228
REMARK   79  A    between atoms: _228  and  _229
REMARK   80  A    between atoms: _228  and  _231
REMARK   81  A    between atoms: _231  and  _232
REMARK   82  A    between atoms: _237  and  _239
REMARK   83  A    between atoms: _239  and  _240
REMARK   84  A    between atoms: _239  and  _242
REMARK   85  A    between atoms: _242  and  _243
REMARK   86  A    between atoms: _249  and  _251
REMARK   87  A    between atoms: _251  and  _252
REMARK   88  A    between atoms: _254  and  _256
REMARK   89  A    between atoms: _256  and  _257
REMARK   90  A    between atoms: _260  and  _262
REMARK   91  A    between atoms: _262  and  _263
REMARK   92  A    between atoms: _262  and  _265
REMARK   93  A    between atoms: _268  and  _270
REMARK   94  A    between atoms: _270  and  _271
REMARK   95  A    between atoms: _270  and  _273
REMARK   96  A    between atoms: _273  and  _274
REMARK   97  A    between atoms: _274  and  _275
REMARK   98  A    between atoms: _280  and  _282
REMARK   99  A    between atoms: _282  and  _283
REMARK  100  A    between atoms: _282  and  _285
REMARK  101  A    between atoms: _285  and  _286
REMARK  102  A    between atoms: _289  and  _291
REMARK  103  A    between atoms: _291  and  _292
REMARK  104  A    between atoms: _295  and  _297
REMARK  105  A    between atoms: _297  and  _298
REMARK  106  A    between atoms: _297  and  _300
REMARK  107  A    between atoms: _303  and  _305
REMARK  108  A    between atoms: _305  and  _306
REMARK  109  A    between atoms: _305  and  _308
REMARK  110  A    between atoms: _308  and  _309
REMARK  111  A    between atoms: _312  and  _314
REMARK  112  A    between atoms: _314  and  _315
REMARK  113  A    between atoms: _317  and  _319
REMARK  114  A    between atoms: _319  and  _320
REMARK  115  A    between atoms: _319  and  _322
REMARK  116  A    between atoms: _322  and  _323
REMARK  117  A    between atoms: _325  and  _327
REMARK  118  A    between atoms: _327  and  _328
REMARK  119  A    between atoms: _327  and  _330
REMARK  120  A    between atoms: _330  and  _331
REMARK  121  A    between atoms: _334  and  _336
REMARK  122  A    between atoms: _336  and  _337
REMARK  123  A    between atoms: _336  and  _339
REMARK  124  A    between atoms: _339  and  _340
REMARK  125  A    between atoms: _343  and  _345
REMARK  126  A    between atoms: _345  and  _346
REMARK  127  A    between atoms: _345  and  _348
REMARK  128  A    between atoms: _348  and  _349
REMARK  129  A    between atoms: _353  and  _354
REMARK  130  A    between atoms: _360  and  _361
REMARK  131  A    between atoms: _366  and  _368
REMARK  132  A    between atoms: _368  and  _369
REMARK  133  A    between atoms: _368  and  _371
REMARK  134  A    between atoms: _371  and  _372
REMARK  135  A    between atoms: _375  and  _377
REMARK  136  A    between atoms: _377  and  _378
REMARK  137  A    between atoms: _377  and  _380
REMARK  138  A    between atoms: _380  and  _381
REMARK  139  A    between atoms: _384  and  _386
REMARK  140  A    between atoms: _386  and  _387
REMARK  141  A    between atoms: _386  and  _389
REMARK  142  A    between atoms: _391  and  _393
REMARK  143  A    between atoms: _393  and  _394
REMARK  144  A    between atoms: _393  and  _396
REMARK  145  A    between atoms: _399  and  _401
REMARK  146  A    between atoms: _401  and  _402
REMARK  147  A    between atoms: _401  and  _404
REMARK  148  A    between atoms: _404  and  _405
REMARK  149  A    between atoms: _415  and  _417
REMARK  150  A    between atoms: _417  and  _418
REMARK  151  A    between atoms: _417  and  _420
REMARK  152  A    between atoms: _420  and  _421
REMARK  153  A    between atoms: _426  and  _428
REMARK  154  A    between atoms: _428  and  _429
REMARK  155  A    between atoms: _428  and  _431
REMARK  156  A    between atoms: _431  and  _432
REMARK  157  A    between atoms: _432  and  _433
REMARK  158  A    between atoms: _433  and  _434
REMARK                            x       y       z     vdW  Elec       q    Type
REMARK                         _______ _______ _______ _____ _____    ______ ____
ROOT
ATOM      1  O   HOH     1      -2.377  -2.836  11.532  0.00  0.00    +0.000 OA
ENDROOT
TORSDOF 0
REMARK  Name = ../refined-set-2016/3dd8/3dd8_pocket.pdb
REMARK  158 active torsions:
REMARK  status: ('A' for Active; 'I' for Inactive)
REMARK    1  A    between atoms: _1  and  _3
REMARK    2  A    between atoms: _3  and  _4
REMARK    3  A    between atoms: _3  and  _6
REMARK    4  A    between atoms: _6  and  _7
REMARK    5  A    between atoms: _17  and  _19
REMARK    6  A    between atoms: _19  and  _20
REMARK    7  A    between atoms: _19  and  _22
REMARK    8  A    between atoms: _22  and  _23
REMARK    9  A    between atoms: _28  and  _29
REMARK   10  A    between atoms: _31  and  _33
REMARK   11  A    between atoms: _33  and  _34
REMARK   12  A    between atoms: _33  and  _36
REMARK   13  A    between atoms: _36  and  _37
REMARK   14  A    between atoms: _43  and  _45
REMARK   15  A    between atoms: _45  and  _46
REMARK   16  A    between atoms: _45  and  _48
REMARK   17  A    between atoms: _48  and  _49
REMARK   18  A    between atoms: _52  and  _53
REMARK   19  A    between atoms: _58  and  _60
REMARK   20  A    between atoms: _60  and  _61
REMARK   21  A    between atoms: _60  and  _63
REMARK   22  A    between atoms: _63  and  _64
REMARK   23  A    between atoms: _69  and  _71
REMARK   24  A    between atoms: _71  and  _72
REMARK   25  A    between atoms: _71  and  _74
REMARK   26  A    between atoms: _74  and  _75
REMARK   27  A    between atoms: _80  and  _82
REMARK   28  A    between atoms: _82  and  _83
REMARK   29  A    between atoms: _82  and  _85
REMARK   30  A    between atoms: _85  and  _86
REMARK   31  A    between atoms: _91  and  _93
REMARK   32  A    between atoms: _93  and  _94
REMARK   33  A    between atoms: _93  and  _96
REMARK   34  A    between atoms: _96  and  _97
REMARK   35  A    between atoms: _100  and  _102
REMARK   36  A    between atoms: _102  and  _103
REMARK   37  A    between atoms: _102  and  _105
REMARK   38  A    between atoms: _105  and  _106
REMARK   39  A    between atoms: _106  and  _107
REMARK   40  A    between atoms: _112  and  _114
REMARK   41  A    between atoms: _114  and  _115
REMARK   42  A    between atoms: _114  and  _117
REMARK   43  A    between atoms: _117  and  _118
REMARK   44  A    between atoms: _124  and  _126
REMARK   45  A    between atoms: _137  and  _140
REMARK   46  A    between atoms: _140  and  _141
REMARK   47  A    between atoms: _149  and  _150
REMARK   48  A    between atoms: _158  and  _160
REMARK   49  A    between atoms: _160  and  _161
REMARK   50  A    between atoms: _160  and  _163
REMARK   51  A    between atoms: _163  and  _164
REMARK   52  A    between atoms: _164  and  _165
REMARK   53  A    between atoms: _168  and  _170
REMARK   54  A    between atoms: _170  and  _171
REMARK   55  A    between atoms: _170  and  _173
REMARK   56  A    between atoms: _173  and  _174
REMARK   57  A    between atoms: _179  and  _181
REMARK   58  A    between atoms: _181  and  _182
REMARK   59  A    between atoms: _181  and  _184
REMARK   60  A    between atoms: _184  and  _185
REMARK   61  A    between atoms: _185  and  _186
REMARK   62  A    between atoms: _189  and  _191
REMARK   63  A    between atoms: _191  and  _192
REMARK   64  A    between atoms: _191  and  _194
REMARK   65  A    between atoms: _194  and  _195
REMARK   66  A    between atoms: _198  and  _200
REMARK   67  A    between atoms: _200  and  _201
REMARK   68  A    between atoms: _200  and  _203
REMARK   69  A    between atoms: _203  and  _204
REMARK   70  A    between atoms: _205  and  ZN_443
REMARK   71  A    between atoms: _209  and  _211
REMARK   72  A    between atoms: _211  and  _212
REMARK   73  A    between atoms: _211  and  _214
REMARK   74  A    between atoms: _214  and  _215
REMARK   75  A    between atoms: _218  and  _220
REMARK   76  A    between atoms: _220  and  _221
REMARK   77  A    between atoms: _220  and  _223
REMARK   78  A    between atoms: _226  and  _228
REMARK   79  A    between atoms: _228  and  _229
REMARK   80  A    between atoms: _228  and  _231
REMARK   81  A    between atoms: _231  and  _232
REMARK   82  A    between atoms: _237  and  _239
REMARK   83  A    between atoms: _239  and  _240
REMARK   84  A    between atoms: _239  and  _242
REMARK   85  A    between atoms: _242  and  _243
REMARK   86  A    between atoms: _249  and  _251
REMARK   87  A    between atoms: _251  and  _252
REMARK   88  A    between atoms: _254  and  _256
REMARK   89  A    between atoms: _256  and  _257
REMARK   90  A    between atoms: _260  and  _262
REMARK   91  A    between atoms: _262  and  _263
REMARK   92  A    between atoms: _262  and  _265
REMARK   93  A    between atoms: _268  and  _270
REMARK   94  A    between atoms: _270  and  _271
REMARK   95  A    between atoms: _270  and  _273
REMARK   96  A    between atoms: _273  and  _274
REMARK   97  A    between atoms: _274  and  _275
REMARK   98  A    between atoms: _280  and  _282
REMARK   99  A    between atoms: _282  and  _283
REMARK  100  A    between atoms: _282  and  _285
REMARK  101  A    between atoms: _285  and  _286
REMARK  102  A    between atoms: _289  and  _291
REMARK  103  A    between atoms: _291  and  _292
REMARK  104  A    between atoms: _295  and  _297
REMARK  105  A    between atoms: _297  and  _298
REMARK  106  A    between atoms: _297  and  _300
REMARK  107  A    between atoms: _303  and  _305
REMARK  108  A    between atoms: _305  and  _306
REMARK  109  A    between atoms: _305  and  _308
REMARK  110  A    between atoms: _308  and  _309
REMARK  111  A    between atoms: _312  and  _314
REMARK  112  A    between atoms: _314  and  _315
REMARK  113  A    between atoms: _317  and  _319
REMARK  114  A    between atoms: _319  and  _320
REMARK  115  A    between atoms: _319  and  _322
REMARK  116  A    between atoms: _322  and  _323
REMARK  117  A    between atoms: _325  and  _327
REMARK  118  A    between atoms: _327  and  _328
REMARK  119  A    between atoms: _327  and  _330
REMARK  120  A    between atoms: _330  and  _331
REMARK  121  A    between atoms: _334  and  _336
REMARK  122  A    between atoms: _336  and  _337
REMARK  123  A    between atoms: _336  and  _339
REMARK  124  A    between atoms: _339  and  _340
REMARK  125  A    between atoms: _343  and  _345
REMARK  126  A    between atoms: _345  and  _346
REMARK  127  A    between atoms: _345  and  _348
REMARK  128  A    between atoms: _348  and  _349
REMARK  129  A    between atoms: _353  and  _354
REMARK  130  A    between atoms: _360  and  _361
REMARK  131  A    between atoms: _366  and  _368
REMARK  132  A    between atoms: _368  and  _369
REMARK  133  A    between atoms: _368  and  _371
REMARK  134  A    between atoms: _371  and  _372
REMARK  135  A    between atoms: _375  and  _377
REMARK  136  A    between atoms: _377  and  _378
REMARK  137  A    between atoms: _377  and  _380
REMARK  138  A    between atoms: _380  and  _381
REMARK  139  A    between atoms: _384  and  _386
REMARK  140  A    between atoms: _386  and  _387
REMARK  141  A    between atoms: _386  and  _389
REMARK  142  A    between atoms: _391  and  _393
REMARK  143  A    between atoms: _393  and  _394
REMARK  144  A    between atoms: _393  and  _396
REMARK  145  A    between atoms: _399  and  _401
REMARK  146  A    between atoms: _401  and  _402
REMARK  147  A    between atoms: _401  and  _404
REMARK  148  A    between atoms: _404  and  _405
REMARK  149  A    between atoms: _415  and  _417
REMARK  150  A    between atoms: _417  and  _418
REMARK  151  A    between atoms: _417  and  _420
REMARK  152  A    between atoms: _420  and  _421
REMARK  153  A    between atoms: _426  and  _428
REMARK  154  A    between atoms: _428  and  _429
REMARK  155  A    between atoms: _428  and  _431
REMARK  156  A    between atoms: _431  and  _432
REMARK  157  A    between atoms: _432  and  _433
REMARK  158  A    between atoms: _433  and  _434
REMARK                            x       y       z     vdW  Elec       q    Type
REMARK                         _______ _______ _______ _____ _____    ______ ____
ROOT
ATOM      1  O   HOH     1      -5.006   1.534  10.840  0.00  0.00    +0.000 OA
ENDROOT
TORSDOF 0
REMARK  Name = ../refined-set-2016/3dd8/3dd8_pocket.pdb
REMARK  158 active torsions:
REMARK  status: ('A' for Active; 'I' for Inactive)
REMARK    1  A    between atoms: _1  and  _3
REMARK    2  A    between atoms: _3  and  _4
REMARK    3  A    between atoms: _3  and  _6
REMARK    4  A    between atoms: _6  and  _7
REMARK    5  A    between atoms: _17  and  _19
REMARK    6  A    between atoms: _19  and  _20
REMARK    7  A    between atoms: _19  and  _22
REMARK    8  A    between atoms: _22  and  _23
REMARK    9  A    between atoms: _28  and  _29
REMARK   10  A    between atoms: _31  and  _33
REMARK   11  A    between atoms: _33  and  _34
REMARK   12  A    between atoms: _33  and  _36
REMARK   13  A    between atoms: _36  and  _37
REMARK   14  A    between atoms: _43  and  _45
REMARK   15  A    between atoms: _45  and  _46
REMARK   16  A    between atoms: _45  and  _48
REMARK   17  A    between atoms: _48  and  _49
REMARK   18  A    between atoms: _52  and  _53
REMARK   19  A    between atoms: _58  and  _60
REMARK   20  A    between atoms: _60  and  _61
REMARK   21  A    between atoms: _60  and  _63
REMARK   22  A    between atoms: _63  and  _64
REMARK   23  A    between atoms: _69  and  _71
REMARK   24  A    between atoms: _71  and  _72
REMARK   25  A    between atoms: _71  and  _74
REMARK   26  A    between atoms: _74  and  _75
REMARK   27  A    between atoms: _80  and  _82
REMARK   28  A    between atoms: _82  and  _83
REMARK   29  A    between atoms: _82  and  _85
REMARK   30  A    between atoms: _85  and  _86
REMARK   31  A    between atoms: _91  and  _93
REMARK   32  A    between atoms: _93  and  _94
REMARK   33  A    between atoms: _93  and  _96
REMARK   34  A    between atoms: _96  and  _97
REMARK   35  A    between atoms: _100  and  _102
REMARK   36  A    between atoms: _102  and  _103
REMARK   37  A    between atoms: _102  and  _105
REMARK   38  A    between atoms: _105  and  _106
REMARK   39  A    between atoms: _106  and  _107
REMARK   40  A    between atoms: _112  and  _114
REMARK   41  A    between atoms: _114  and  _115
REMARK   42  A    between atoms: _114  and  _117
REMARK   43  A    between atoms: _117  and  _118
REMARK   44  A    between atoms: _124  and  _126
REMARK   45  A    between atoms: _137  and  _140
REMARK   46  A    between atoms: _140  and  _141
REMARK   47  A    between atoms: _149  and  _150
REMARK   48  A    between atoms: _158  and  _160
REMARK   49  A    between atoms: _160  and  _161
REMARK   50  A    between atoms: _160  and  _163
REMARK   51  A    between atoms: _163  and  _164
REMARK   52  A    between atoms: _164  and  _165
REMARK   53  A    between atoms: _168  and  _170
REMARK   54  A    between atoms: _170  and  _171
REMARK   55  A    between atoms: _170  and  _173
REMARK   56  A    between atoms: _173  and  _174
REMARK   57  A    between atoms: _179  and  _181
REMARK   58  A    between atoms: _181  and  _182
REMARK   59  A    between atoms: _181  and  _184
REMARK   60  A    between atoms: _184  and  _185
REMARK   61  A    between atoms: _185  and  _186
REMARK   62  A    between atoms: _189  and  _191
REMARK   63  A    between atoms: _191  and  _192
REMARK   64  A    between atoms: _191  and  _194
REMARK   65  A    between atoms: _194  and  _195
REMARK   66  A    between atoms: _198  and  _200
REMARK   67  A    between atoms: _200  and  _201
REMARK   68  A    between atoms: _200  and  _203
REMARK   69  A    between atoms: _203  and  _204
REMARK   70  A    between atoms: _205  and  ZN_443
REMARK   71  A    between atoms: _209  and  _211
REMARK   72  A    between atoms: _211  and  _212
REMARK   73  A    between atoms: _211  and  _214
REMARK   74  A    between atoms: _214  and  _215
REMARK   75  A    between atoms: _218  and  _220
REMARK   76  A    between atoms: _220  and  _221
REMARK   77  A    between atoms: _220  and  _223
REMARK   78  A    between atoms: _226  and  _228
REMARK   79  A    between atoms: _228  and  _229
REMARK   80  A    between atoms: _228  and  _231
REMARK   81  A    between atoms: _231  and  _232
REMARK   82  A    between atoms: _237  and  _239
REMARK   83  A    between atoms: _239  and  _240
REMARK   84  A    between atoms: _239  and  _242
REMARK   85  A    between atoms: _242  and  _243
REMARK   86  A    between atoms: _249  and  _251
REMARK   87  A    between atoms: _251  and  _252
REMARK   88  A    between atoms: _254  and  _256
REMARK   89  A    between atoms: _256  and  _257
REMARK   90  A    between atoms: _260  and  _262
REMARK   91  A    between atoms: _262  and  _263
REMARK   92  A    between atoms: _262  and  _265
REMARK   93  A    between atoms: _268  and  _270
REMARK   94  A    between atoms: _270  and  _271
REMARK   95  A    between atoms: _270  and  _273
REMARK   96  A    between atoms: _273  and  _274
REMARK   97  A    between atoms: _274  and  _275
REMARK   98  A    between atoms: _280  and  _282
REMARK   99  A    between atoms: _282  and  _283
REMARK  100  A    between atoms: _282  and  _285
REMARK  101  A    between atoms: _285  and  _286
REMARK  102  A    between atoms: _289  and  _291
REMARK  103  A    between atoms: _291  and  _292
REMARK  104  A    between atoms: _295  and  _297
REMARK  105  A    between atoms: _297  and  _298
REMARK  106  A    between atoms: _297  and  _300
REMARK  107  A    between atoms: _303  and  _305
REMARK  108  A    between atoms: _305  and  _306
REMARK  109  A    between atoms: _305  and  _308
REMARK  110  A    between atoms: _308  and  _309
REMARK  111  A    between atoms: _312  and  _314
REMARK  112  A    between atoms: _314  and  _315
REMARK  113  A    between atoms: _317  and  _319
REMARK  114  A    between atoms: _319  and  _320
REMARK  115  A    between atoms: _319  and  _322
REMARK  116  A    between atoms: _322  and  _323
REMARK  117  A    between atoms: _325  and  _327
REMARK  118  A    between atoms: _327  and  _328
REMARK  119  A    between atoms: _327  and  _330
REMARK  120  A    between atoms: _330  and  _331
REMARK  121  A    between atoms: _334  and  _336
REMARK  122  A    between atoms: _336  and  _337
REMARK  123  A    between atoms: _336  and  _339
REMARK  124  A    between atoms: _339  and  _340
REMARK  125  A    between atoms: _343  and  _345
REMARK  126  A    between atoms: _345  and  _346
REMARK  127  A    between atoms: _345  and  _348
REMARK  128  A    between atoms: _348  and  _349
REMARK  129  A    between atoms: _353  and  _354
REMARK  130  A    between atoms: _360  and  _361
REMARK  131  A    between atoms: _366  and  _368
REMARK  132  A    between atoms: _368  and  _369
REMARK  133  A    between atoms: _368  and  _371
REMARK  134  A    between atoms: _371  and  _372
REMARK  135  A    between atoms: _375  and  _377
REMARK  136  A    between atoms: _377  and  _378
REMARK  137  A    between atoms: _377  and  _380
REMARK  138  A    between atoms: _380  and  _381
REMARK  139  A    between atoms: _384  and  _386
REMARK  140  A    between atoms: _386  and  _387
REMARK  141  A    between atoms: _386  and  _389
REMARK  142  A    between atoms: _391  and  _393
REMARK  143  A    between atoms: _393  and  _394
REMARK  144  A    between atoms: _393  and  _396
REMARK  145  A    between atoms: _399  and  _401
REMARK  146  A    between atoms: _401  and  _402
REMARK  147  A    between atoms: _401  and  _404
REMARK  148  A    between atoms: _404  and  _405
REMARK  149  A    between atoms: _415  and  _417
REMARK  150  A    between atoms: _417  and  _418
REMARK  151  A    between atoms: _417  and  _420
REMARK  152  A    between atoms: _420  and  _421
REMARK  153  A    between atoms: _426  and  _428
REMARK  154  A    between atoms: _428  and  _429
REMARK  155  A    between atoms: _428  and  _431
REMARK  156  A    between atoms: _431  and  _432
REMARK  157  A    between atoms: _432  and  _433
REMARK  158  A    between atoms: _433  and  _434
REMARK                            x       y       z     vdW  Elec       q    Type
REMARK                         _______ _______ _______ _____ _____    ______ ____
ROOT
ATOM      1  O   HOH     1      -6.840   7.317  10.625  0.00  0.00    +0.000 OA
ENDROOT
TORSDOF 0
REMARK  Name = ../refined-set-2016/3dd8/3dd8_pocket.pdb
REMARK  158 active torsions:
REMARK  status: ('A' for Active; 'I' for Inactive)
REMARK    1  A    between atoms: _1  and  _3
REMARK    2  A    between atoms: _3  and  _4
REMARK    3  A    between atoms: _3  and  _6
REMARK    4  A    between atoms: _6  and  _7
REMARK    5  A    between atoms: _17  and  _19
REMARK    6  A    between atoms: _19  and  _20
REMARK    7  A    between atoms: _19  and  _22
REMARK    8  A    between atoms: _22  and  _23
REMARK    9  A    between atoms: _28  and  _29
REMARK   10  A    between atoms: _31  and  _33
REMARK   11  A    between atoms: _33  and  _34
REMARK   12  A    between atoms: _33  and  _36
REMARK   13  A    between atoms: _36  and  _37
REMARK   14  A    between atoms: _43  and  _45
REMARK   15  A    between atoms: _45  and  _46
REMARK   16  A    between atoms: _45  and  _48
REMARK   17  A    between atoms: _48  and  _49
REMARK   18  A    between atoms: _52  and  _53
REMARK   19  A    between atoms: _58  and  _60
REMARK   20  A    between atoms: _60  and  _61
REMARK   21  A    between atoms: _60  and  _63
REMARK   22  A    between atoms: _63  and  _64
REMARK   23  A    between atoms: _69  and  _71
REMARK   24  A    between atoms: _71  and  _72
REMARK   25  A    between atoms: _71  and  _74
REMARK   26  A    between atoms: _74  and  _75
REMARK   27  A    between atoms: _80  and  _82
REMARK   28  A    between atoms: _82  and  _83
REMARK   29  A    between atoms: _82  and  _85
REMARK   30  A    between atoms: _85  and  _86
REMARK   31  A    between atoms: _91  and  _93
REMARK   32  A    between atoms: _93  and  _94
REMARK   33  A    between atoms: _93  and  _96
REMARK   34  A    between atoms: _96  and  _97
REMARK   35  A    between atoms: _100  and  _102
REMARK   36  A    between atoms: _102  and  _103
REMARK   37  A    between atoms: _102  and  _105
REMARK   38  A    between atoms: _105  and  _106
REMARK   39  A    between atoms: _106  and  _107
REMARK   40  A    between atoms: _112  and  _114
REMARK   41  A    between atoms: _114  and  _115
REMARK   42  A    between atoms: _114  and  _117
REMARK   43  A    between atoms: _117  and  _118
REMARK   44  A    between atoms: _124  and  _126
REMARK   45  A    between atoms: _137  and  _140
REMARK   46  A    between atoms: _140  and  _141
REMARK   47  A    between atoms: _149  and  _150
REMARK   48  A    between atoms: _158  and  _160
REMARK   49  A    between atoms: _160  and  _161
REMARK   50  A    between atoms: _160  and  _163
REMARK   51  A    between atoms: _163  and  _164
REMARK   52  A    between atoms: _164  and  _165
REMARK   53  A    between atoms: _168  and  _170
REMARK   54  A    between atoms: _170  and  _171
REMARK   55  A    between atoms: _170  and  _173
REMARK   56  A    between atoms: _173  and  _174
REMARK   57  A    between atoms: _179  and  _181
REMARK   58  A    between atoms: _181  and  _182
REMARK   59  A    between atoms: _181  and  _184
REMARK   60  A    between atoms: _184  and  _185
REMARK   61  A    between atoms: _185  and  _186
REMARK   62  A    between atoms: _189  and  _191
REMARK   63  A    between atoms: _191  and  _192
REMARK   64  A    between atoms: _191  and  _194
REMARK   65  A    between atoms: _194  and  _195
REMARK   66  A    between atoms: _198  and  _200
REMARK   67  A    between atoms: _200  and  _201
REMARK   68  A    between atoms: _200  and  _203
REMARK   69  A    between atoms: _203  and  _204
REMARK   70  A    between atoms: _205  and  ZN_443
REMARK   71  A    between atoms: _209  and  _211
REMARK   72  A    between atoms: _211  and  _212
REMARK   73  A    between atoms: _211  and  _214
REMARK   74  A    between atoms: _214  and  _215
REMARK   75  A    between atoms: _218  and  _220
REMARK   76  A    between atoms: _220  and  _221
REMARK   77  A    between atoms: _220  and  _223
REMARK   78  A    between atoms: _226  and  _228
REMARK   79  A    between atoms: _228  and  _229
REMARK   80  A    between atoms: _228  and  _231
REMARK   81  A    between atoms: _231  and  _232
REMARK   82  A    between atoms: _237  and  _239
REMARK   83  A    between atoms: _239  and  _240
REMARK   84  A    between atoms: _239  and  _242
REMARK   85  A    between atoms: _242  and  _243
REMARK   86  A    between atoms: _249  and  _251
REMARK   87  A    between atoms: _251  and  _252
REMARK   88  A    between atoms: _254  and  _256
REMARK   89  A    between atoms: _256  and  _257
REMARK   90  A    between atoms: _260  and  _262
REMARK   91  A    between atoms: _262  and  _263
REMARK   92  A    between atoms: _262  and  _265
REMARK   93  A    between atoms: _268  and  _270
REMARK   94  A    between atoms: _270  and  _271
REMARK   95  A    between atoms: _270  and  _273
REMARK   96  A    between atoms: _273  and  _274
REMARK   97  A    between atoms: _274  and  _275
REMARK   98  A    between atoms: _280  and  _282
REMARK   99  A    between atoms: _282  and  _283
REMARK  100  A    between atoms: _282  and  _285
REMARK  101  A    between atoms: _285  and  _286
REMARK  102  A    between atoms: _289  and  _291
REMARK  103  A    between atoms: _291  and  _292
REMARK  104  A    between atoms: _295  and  _297
REMARK  105  A    between atoms: _297  and  _298
REMARK  106  A    between atoms: _297  and  _300
REMARK  107  A    between atoms: _303  and  _305
REMARK  108  A    between atoms: _305  and  _306
REMARK  109  A    between atoms: _305  and  _308
REMARK  110  A    between atoms: _308  and  _309
REMARK  111  A    between atoms: _312  and  _314
REMARK  112  A    between atoms: _314  and  _315
REMARK  113  A    between atoms: _317  and  _319
REMARK  114  A    between atoms: _319  and  _320
REMARK  115  A    between atoms: _319  and  _322
REMARK  116  A    between atoms: _322  and  _323
REMARK  117  A    between atoms: _325  and  _327
REMARK  118  A    between atoms: _327  and  _328
REMARK  119  A    between atoms: _327  and  _330
REMARK  120  A    between atoms: _330  and  _331
REMARK  121  A    between atoms: _334  and  _336
REMARK  122  A    between atoms: _336  and  _337
REMARK  123  A    between atoms: _336  and  _339
REMARK  124  A    between atoms: _339  and  _340
REMARK  125  A    between atoms: _343  and  _345
REMARK  126  A    between atoms: _345  and  _346
REMARK  127  A    between atoms: _345  and  _348
REMARK  128  A    between atoms: _348  and  _349
REMARK  129  A    between atoms: _353  and  _354
REMARK  130  A    between atoms: _360  and  _361
REMARK  131  A    between atoms: _366  and  _368
REMARK  132  A    between atoms: _368  and  _369
REMARK  133  A    between atoms: _368  and  _371
REMARK  134  A    between atoms: _371  and  _372
REMARK  135  A    between atoms: _375  and  _377
REMARK  136  A    between atoms: _377  and  _378
REMARK  137  A    between atoms: _377  and  _380
REMARK  138  A    between atoms: _380  and  _381
REMARK  139  A    between atoms: _384  and  _386
REMARK  140  A    between atoms: _386  and  _387
REMARK  141  A    between atoms: _386  and  _389
REMARK  142  A    between atoms: _391  and  _393
REMARK  143  A    between atoms: _393  and  _394
REMARK  144  A    between atoms: _393  and  _396
REMARK  145  A    between atoms: _399  and  _401
REMARK  146  A    between atoms: _401  and  _402
REMARK  147  A    between atoms: _401  and  _404
REMARK  148  A    between atoms: _404  and  _405
REMARK  149  A    between atoms: _415  and  _417
REMARK  150  A    between atoms: _417  and  _418
REMARK  151  A    between atoms: _417  and  _420
REMARK  152  A    between atoms: _420  and  _421
REMARK  153  A    between atoms: _426  and  _428
REMARK  154  A    between atoms: _428  and  _429
REMARK  155  A    between atoms: _428  and  _431
REMARK  156  A    between atoms: _431  and  _432
REMARK  157  A    between atoms: _432  and  _433
REMARK  158  A    between atoms: _433  and  _434
REMARK                            x       y       z     vdW  Elec       q    Type
REMARK                         _______ _______ _______ _____ _____    ______ ____
ROOT
ATOM      1  O   HOH     1      -1.050   1.630  11.343  0.00  0.00    +0.000 OA
ENDROOT
TORSDOF 0
REMARK  Name = ../refined-set-2016/3dd8/3dd8_pocket.pdb
REMARK  158 active torsions:
REMARK  status: ('A' for Active; 'I' for Inactive)
REMARK    1  A    between atoms: _1  and  _3
REMARK    2  A    between atoms: _3  and  _4
REMARK    3  A    between atoms: _3  and  _6
REMARK    4  A    between atoms: _6  and  _7
REMARK    5  A    between atoms: _17  and  _19
REMARK    6  A    between atoms: _19  and  _20
REMARK    7  A    between atoms: _19  and  _22
REMARK    8  A    between atoms: _22  and  _23
REMARK    9  A    between atoms: _28  and  _29
REMARK   10  A    between atoms: _31  and  _33
REMARK   11  A    between atoms: _33  and  _34
REMARK   12  A    between atoms: _33  and  _36
REMARK   13  A    between atoms: _36  and  _37
REMARK   14  A    between atoms: _43  and  _45
REMARK   15  A    between atoms: _45  and  _46
REMARK   16  A    between atoms: _45  and  _48
REMARK   17  A    between atoms: _48  and  _49
REMARK   18  A    between atoms: _52  and  _53
REMARK   19  A    between atoms: _58  and  _60
REMARK   20  A    between atoms: _60  and  _61
REMARK   21  A    between atoms: _60  and  _63
REMARK   22  A    between atoms: _63  and  _64
REMARK   23  A    between atoms: _69  and  _71
REMARK   24  A    between atoms: _71  and  _72
REMARK   25  A    between atoms: _71  and  _74
REMARK   26  A    between atoms: _74  and  _75
REMARK   27  A    between atoms: _80  and  _82
REMARK   28  A    between atoms: _82  and  _83
REMARK   29  A    between atoms: _82  and  _85
REMARK   30  A    between atoms: _85  and  _86
REMARK   31  A    between atoms: _91  and  _93
REMARK   32  A    between atoms: _93  and  _94
REMARK   33  A    between atoms: _93  and  _96
REMARK   34  A    between atoms: _96  and  _97
REMARK   35  A    between atoms: _100  and  _102
REMARK   36  A    between atoms: _102  and  _103
REMARK   37  A    between atoms: _102  and  _105
REMARK   38  A    between atoms: _105  and  _106
REMARK   39  A    between atoms: _106  and  _107
REMARK   40  A    between atoms: _112  and  _114
REMARK   41  A    between atoms: _114  and  _115
REMARK   42  A    between atoms: _114  and  _117
REMARK   43  A    between atoms: _117  and  _118
REMARK   44  A    between atoms: _124  and  _126
REMARK   45  A    between atoms: _137  and  _140
REMARK   46  A    between atoms: _140  and  _141
REMARK   47  A    between atoms: _149  and  _150
REMARK   48  A    between atoms: _158  and  _160
REMARK   49  A    between atoms: _160  and  _161
REMARK   50  A    between atoms: _160  and  _163
REMARK   51  A    between atoms: _163  and  _164
REMARK   52  A    between atoms: _164  and  _165
REMARK   53  A    between atoms: _168  and  _170
REMARK   54  A    between atoms: _170  and  _171
REMARK   55  A    between atoms: _170  and  _173
REMARK   56  A    between atoms: _173  and  _174
REMARK   57  A    between atoms: _179  and  _181
REMARK   58  A    between atoms: _181  and  _182
REMARK   59  A    between atoms: _181  and  _184
REMARK   60  A    between atoms: _184  and  _185
REMARK   61  A    between atoms: _185  and  _186
REMARK   62  A    between atoms: _189  and  _191
REMARK   63  A    between atoms: _191  and  _192
REMARK   64  A    between atoms: _191  and  _194
REMARK   65  A    between atoms: _194  and  _195
REMARK   66  A    between atoms: _198  and  _200
REMARK   67  A    between atoms: _200  and  _201
REMARK   68  A    between atoms: _200  and  _203
REMARK   69  A    between atoms: _203  and  _204
REMARK   70  A    between atoms: _205  and  ZN_443
REMARK   71  A    between atoms: _209  and  _211
REMARK   72  A    between atoms: _211  and  _212
REMARK   73  A    between atoms: _211  and  _214
REMARK   74  A    between atoms: _214  and  _215
REMARK   75  A    between atoms: _218  and  _220
REMARK   76  A    between atoms: _220  and  _221
REMARK   77  A    between atoms: _220  and  _223
REMARK   78  A    between atoms: _226  and  _228
REMARK   79  A    between atoms: _228  and  _229
REMARK   80  A    between atoms: _228  and  _231
REMARK   81  A    between atoms: _231  and  _232
REMARK   82  A    between atoms: _237  and  _239
REMARK   83  A    between atoms: _239  and  _240
REMARK   84  A    between atoms: _239  and  _242
REMARK   85  A    between atoms: _242  and  _243
REMARK   86  A    between atoms: _249  and  _251
REMARK   87  A    between atoms: _251  and  _252
REMARK   88  A    between atoms: _254  and  _256
REMARK   89  A    between atoms: _256  and  _257
REMARK   90  A    between atoms: _260  and  _262
REMARK   91  A    between atoms: _262  and  _263
REMARK   92  A    between atoms: _262  and  _265
REMARK   93  A    between atoms: _268  and  _270
REMARK   94  A    between atoms: _270  and  _271
REMARK   95  A    between atoms: _270  and  _273
REMARK   96  A    between atoms: _273  and  _274
REMARK   97  A    between atoms: _274  and  _275
REMARK   98  A    between atoms: _280  and  _282
REMARK   99  A    between atoms: _282  and  _283
REMARK  100  A    between atoms: _282  and  _285
REMARK  101  A    between atoms: _285  and  _286
REMARK  102  A    between atoms: _289  and  _291
REMARK  103  A    between atoms: _291  and  _292
REMARK  104  A    between atoms: _295  and  _297
REMARK  105  A    between atoms: _297  and  _298
REMARK  106  A    between atoms: _297  and  _300
REMARK  107  A    between atoms: _303  and  _305
REMARK  108  A    between atoms: _305  and  _306
REMARK  109  A    between atoms: _305  and  _308
REMARK  110  A    between atoms: _308  and  _309
REMARK  111  A    between atoms: _312  and  _314
REMARK  112  A    between atoms: _314  and  _315
REMARK  113  A    between atoms: _317  and  _319
REMARK  114  A    between atoms: _319  and  _320
REMARK  115  A    between atoms: _319  and  _322
REMARK  116  A    between atoms: _322  and  _323
REMARK  117  A    between atoms: _325  and  _327
REMARK  118  A    between atoms: _327  and  _328
REMARK  119  A    between atoms: _327  and  _330
REMARK  120  A    between atoms: _330  and  _331
REMARK  121  A    between atoms: _334  and  _336
REMARK  122  A    between atoms: _336  and  _337
REMARK  123  A    between atoms: _336  and  _339
REMARK  124  A    between atoms: _339  and  _340
REMARK  125  A    between atoms: _343  and  _345
REMARK  126  A    between atoms: _345  and  _346
REMARK  127  A    between atoms: _345  and  _348
REMARK  128  A    between atoms: _348  and  _349
REMARK  129  A    between atoms: _353  and  _354
REMARK  130  A    between atoms: _360  and  _361
REMARK  131  A    between atoms: _366  and  _368
REMARK  132  A    between atoms: _368  and  _369
REMARK  133  A    between atoms: _368  and  _371
REMARK  134  A    between atoms: _371  and  _372
REMARK  135  A    between atoms: _375  and  _377
REMARK  136  A    between atoms: _377  and  _378
REMARK  137  A    between atoms: _377  and  _380
REMARK  138  A    between atoms: _380  and  _381
REMARK  139  A    between atoms: _384  and  _386
REMARK  140  A    between atoms: _386  and  _387
REMARK  141  A    between atoms: _386  and  _389
REMARK  142  A    between atoms: _391  and  _393
REMARK  143  A    between atoms: _393  and  _394
REMARK  144  A    between atoms: _393  and  _396
REMARK  145  A    between atoms: _399  and  _401
REMARK  146  A    between atoms: _401  and  _402
REMARK  147  A    between atoms: _401  and  _404
REMARK  148  A    between atoms: _404  and  _405
REMARK  149  A    between atoms: _415  and  _417
REMARK  150  A    between atoms: _417  and  _418
REMARK  151  A    between atoms: _417  and  _420
REMARK  152  A    between atoms: _420  and  _421
REMARK  153  A    between atoms: _426  and  _428
REMARK  154  A    between atoms: _428  and  _429
REMARK  155  A    between atoms: _428  and  _431
REMARK  156  A    between atoms: _431  and  _432
REMARK  157  A    between atoms: _432  and  _433
REMARK  158  A    between atoms: _433  and  _434
REMARK                            x       y       z     vdW  Elec       q    Type
REMARK                         _______ _______ _______ _____ _____    ______ ____
ROOT
ATOM      1  O   HOH     1      -3.633  -0.384  11.597  0.00  0.00    +0.000 OA
ENDROOT
TORSDOF 0
REMARK  Name = ../refined-set-2016/3dd8/3dd8_pocket.pdb
REMARK  158 active torsions:
REMARK  status: ('A' for Active; 'I' for Inactive)
REMARK    1  A    between atoms: _1  and  _3
REMARK    2  A    between atoms: _3  and  _4
REMARK    3  A    between atoms: _3  and  _6
REMARK    4  A    between atoms: _6  and  _7
REMARK    5  A    between atoms: _17  and  _19
REMARK    6  A    between atoms: _19  and  _20
REMARK    7  A    between atoms: _19  and  _22
REMARK    8  A    between atoms: _22  and  _23
REMARK    9  A    between atoms: _28  and  _29
REMARK   10  A    between atoms: _31  and  _33
REMARK   11  A    between atoms: _33  and  _34
REMARK   12  A    between atoms: _33  and  _36
REMARK   13  A    between atoms: _36  and  _37
REMARK   14  A    between atoms: _43  and  _45
REMARK   15  A    between atoms: _45  and  _46
REMARK   16  A    between atoms: _45  and  _48
REMARK   17  A    between atoms: _48  and  _49
REMARK   18  A    between atoms: _52  and  _53
REMARK   19  A    between atoms: _58  and  _60
REMARK   20  A    between atoms: _60  and  _61
REMARK   21  A    between atoms: _60  and  _63
REMARK   22  A    between atoms: _63  and  _64
REMARK   23  A    between atoms: _69  and  _71
REMARK   24  A    between atoms: _71  and  _72
REMARK   25  A    between atoms: _71  and  _74
REMARK   26  A    between atoms: _74  and  _75
REMARK   27  A    between atoms: _80  and  _82
REMARK   28  A    between atoms: _82  and  _83
REMARK   29  A    between atoms: _82  and  _85
REMARK   30  A    between atoms: _85  and  _86
REMARK   31  A    between atoms: _91  and  _93
REMARK   32  A    between atoms: _93  and  _94
REMARK   33  A    between atoms: _93  and  _96
REMARK   34  A    between atoms: _96  and  _97
REMARK   35  A    between atoms: _100  and  _102
REMARK   36  A    between atoms: _102  and  _103
REMARK   37  A    between atoms: _102  and  _105
REMARK   38  A    between atoms: _105  and  _106
REMARK   39  A    between atoms: _106  and  _107
REMARK   40  A    between atoms: _112  and  _114
REMARK   41  A    between atoms: _114  and  _115
REMARK   42  A    between atoms: _114  and  _117
REMARK   43  A    between atoms: _117  and  _118
REMARK   44  A    between atoms: _124  and  _126
REMARK   45  A    between atoms: _137  and  _140
REMARK   46  A    between atoms: _140  and  _141
REMARK   47  A    between atoms: _149  and  _150
REMARK   48  A    between atoms: _158  and  _160
REMARK   49  A    between atoms: _160  and  _161
REMARK   50  A    between atoms: _160  and  _163
REMARK   51  A    between atoms: _163  and  _164
REMARK   52  A    between atoms: _164  and  _165
REMARK   53  A    between atoms: _168  and  _170
REMARK   54  A    between atoms: _170  and  _171
REMARK   55  A    between atoms: _170  and  _173
REMARK   56  A    between atoms: _173  and  _174
REMARK   57  A    between atoms: _179  and  _181
REMARK   58  A    between atoms: _181  and  _182
REMARK   59  A    between atoms: _181  and  _184
REMARK   60  A    between atoms: _184  and  _185
REMARK   61  A    between atoms: _185  and  _186
REMARK   62  A    between atoms: _189  and  _191
REMARK   63  A    between atoms: _191  and  _192
REMARK   64  A    between atoms: _191  and  _194
REMARK   65  A    between atoms: _194  and  _195
REMARK   66  A    between atoms: _198  and  _200
REMARK   67  A    between atoms: _200  and  _201
REMARK   68  A    between atoms: _200  and  _203
REMARK   69  A    between atoms: _203  and  _204
REMARK   70  A    between atoms: _205  and  ZN_443
REMARK   71  A    between atoms: _209  and  _211
REMARK   72  A    between atoms: _211  and  _212
REMARK   73  A    between atoms: _211  and  _214
REMARK   74  A    between atoms: _214  and  _215
REMARK   75  A    between atoms: _218  and  _220
REMARK   76  A    between atoms: _220  and  _221
REMARK   77  A    between atoms: _220  and  _223
REMARK   78  A    between atoms: _226  and  _228
REMARK   79  A    between atoms: _228  and  _229
REMARK   80  A    between atoms: _228  and  _231
REMARK   81  A    between atoms: _231  and  _232
REMARK   82  A    between atoms: _237  and  _239
REMARK   83  A    between atoms: _239  and  _240
REMARK   84  A    between atoms: _239  and  _242
REMARK   85  A    between atoms: _242  and  _243
REMARK   86  A    between atoms: _249  and  _251
REMARK   87  A    between atoms: _251  and  _252
REMARK   88  A    between atoms: _254  and  _256
REMARK   89  A    between atoms: _256  and  _257
REMARK   90  A    between atoms: _260  and  _262
REMARK   91  A    between atoms: _262  and  _263
REMARK   92  A    between atoms: _262  and  _265
REMARK   93  A    between atoms: _268  and  _270
REMARK   94  A    between atoms: _270  and  _271
REMARK   95  A    between atoms: _270  and  _273
REMARK   96  A    between atoms: _273  and  _274
REMARK   97  A    between atoms: _274  and  _275
REMARK   98  A    between atoms: _280  and  _282
REMARK   99  A    between atoms: _282  and  _283
REMARK  100  A    between atoms: _282  and  _285
REMARK  101  A    between atoms: _285  and  _286
REMARK  102  A    between atoms: _289  and  _291
REMARK  103  A    between atoms: _291  and  _292
REMARK  104  A    between atoms: _295  and  _297
REMARK  105  A    between atoms: _297  and  _298
REMARK  106  A    between atoms: _297  and  _300
REMARK  107  A    between atoms: _303  and  _305
REMARK  108  A    between atoms: _305  and  _306
REMARK  109  A    between atoms: _305  and  _308
REMARK  110  A    between atoms: _308  and  _309
REMARK  111  A    between atoms: _312  and  _314
REMARK  112  A    between atoms: _314  and  _315
REMARK  113  A    between atoms: _317  and  _319
REMARK  114  A    between atoms: _319  and  _320
REMARK  115  A    between atoms: _319  and  _322
REMARK  116  A    between atoms: _322  and  _323
REMARK  117  A    between atoms: _325  and  _327
REMARK  118  A    between atoms: _327  and  _328
REMARK  119  A    between atoms: _327  and  _330
REMARK  120  A    between atoms: _330  and  _331
REMARK  121  A    between atoms: _334  and  _336
REMARK  122  A    between atoms: _336  and  _337
REMARK  123  A    between atoms: _336  and  _339
REMARK  124  A    between atoms: _339  and  _340
REMARK  125  A    between atoms: _343  and  _345
REMARK  126  A    between atoms: _345  and  _346
REMARK  127  A    between atoms: _345  and  _348
REMARK  128  A    between atoms: _348  and  _349
REMARK  129  A    between atoms: _353  and  _354
REMARK  130  A    between atoms: _360  and  _361
REMARK  131  A    between atoms: _366  and  _368
REMARK  132  A    between atoms: _368  and  _369
REMARK  133  A    between atoms: _368  and  _371
REMARK  134  A    between atoms: _371  and  _372
REMARK  135  A    between atoms: _375  and  _377
REMARK  136  A    between atoms: _377  and  _378
REMARK  137  A    between atoms: _377  and  _380
REMARK  138  A    between atoms: _380  and  _381
REMARK  139  A    between atoms: _384  and  _386
REMARK  140  A    between atoms: _386  and  _387
REMARK  141  A    between atoms: _386  and  _389
REMARK  142  A    between atoms: _391  and  _393
REMARK  143  A    between atoms: _393  and  _394
REMARK  144  A    between atoms: _393  and  _396
REMARK  145  A    between atoms: _399  and  _401
REMARK  146  A    between atoms: _401  and  _402
REMARK  147  A    between atoms: _401  and  _404
REMARK  148  A    between atoms: _404  and  _405
REMARK  149  A    between atoms: _415  and  _417
REMARK  150  A    between atoms: _417  and  _418
REMARK  151  A    between atoms: _417  and  _420
REMARK  152  A    between atoms: _420  and  _421
REMARK  153  A    between atoms: _426  and  _428
REMARK  154  A    between atoms: _428  and  _429
REMARK  155  A    between atoms: _428  and  _431
REMARK  156  A    between atoms: _431  and  _432
REMARK  157  A    between atoms: _432  and  _433
REMARK  158  A    between atoms: _433  and  _434
REMARK                            x       y       z     vdW  Elec       q    Type
REMARK                         _______ _______ _______ _____ _____    ______ ____
ROOT
ATOM      1  O   HOH     1      -8.220   7.418   8.349  0.00  0.00    +0.000 OA
ENDROOT
TORSDOF 0
REMARK  Name = ../refined-set-2016/3dd8/3dd8_pocket.pdb
REMARK  158 active torsions:
REMARK  status: ('A' for Active; 'I' for Inactive)
REMARK    1  A    between atoms: _1  and  _3
REMARK    2  A    between atoms: _3  and  _4
REMARK    3  A    between atoms: _3  and  _6
REMARK    4  A    between atoms: _6  and  _7
REMARK    5  A    between atoms: _17  and  _19
REMARK    6  A    between atoms: _19  and  _20
REMARK    7  A    between atoms: _19  and  _22
REMARK    8  A    between atoms: _22  and  _23
REMARK    9  A    between atoms: _28  and  _29
REMARK   10  A    between atoms: _31  and  _33
REMARK   11  A    between atoms: _33  and  _34
REMARK   12  A    between atoms: _33  and  _36
REMARK   13  A    between atoms: _36  and  _37
REMARK   14  A    between atoms: _43  and  _45
REMARK   15  A    between atoms: _45  and  _46
REMARK   16  A    between atoms: _45  and  _48
REMARK   17  A    between atoms: _48  and  _49
REMARK   18  A    between atoms: _52  and  _53
REMARK   19  A    between atoms: _58  and  _60
REMARK   20  A    between atoms: _60  and  _61
REMARK   21  A    between atoms: _60  and  _63
REMARK   22  A    between atoms: _63  and  _64
REMARK   23  A    between atoms: _69  and  _71
REMARK   24  A    between atoms: _71  and  _72
REMARK   25  A    between atoms: _71  and  _74
REMARK   26  A    between atoms: _74  and  _75
REMARK   27  A    between atoms: _80  and  _82
REMARK   28  A    between atoms: _82  and  _83
REMARK   29  A    between atoms: _82  and  _85
REMARK   30  A    between atoms: _85  and  _86
REMARK   31  A    between atoms: _91  and  _93
REMARK   32  A    between atoms: _93  and  _94
REMARK   33  A    between atoms: _93  and  _96
REMARK   34  A    between atoms: _96  and  _97
REMARK   35  A    between atoms: _100  and  _102
REMARK   36  A    between atoms: _102  and  _103
REMARK   37  A    between atoms: _102  and  _105
REMARK   38  A    between atoms: _105  and  _106
REMARK   39  A    between atoms: _106  and  _107
REMARK   40  A    between atoms: _112  and  _114
REMARK   41  A    between atoms: _114  and  _115
REMARK   42  A    between atoms: _114  and  _117
REMARK   43  A    between atoms: _117  and  _118
REMARK   44  A    between atoms: _124  and  _126
REMARK   45  A    between atoms: _137  and  _140
REMARK   46  A    between atoms: _140  and  _141
REMARK   47  A    between atoms: _149  and  _150
REMARK   48  A    between atoms: _158  and  _160
REMARK   49  A    between atoms: _160  and  _161
REMARK   50  A    between atoms: _160  and  _163
REMARK   51  A    between atoms: _163  and  _164
REMARK   52  A    between atoms: _164  and  _165
REMARK   53  A    between atoms: _168  and  _170
REMARK   54  A    between atoms: _170  and  _171
REMARK   55  A    between atoms: _170  and  _173
REMARK   56  A    between atoms: _173  and  _174
REMARK   57  A    between atoms: _179  and  _181
REMARK   58  A    between atoms: _181  and  _182
REMARK   59  A    between atoms: _181  and  _184
REMARK   60  A    between atoms: _184  and  _185
REMARK   61  A    between atoms: _185  and  _186
REMARK   62  A    between atoms: _189  and  _191
REMARK   63  A    between atoms: _191  and  _192
REMARK   64  A    between atoms: _191  and  _194
REMARK   65  A    between atoms: _194  and  _195
REMARK   66  A    between atoms: _198  and  _200
REMARK   67  A    between atoms: _200  and  _201
REMARK   68  A    between atoms: _200  and  _203
REMARK   69  A    between atoms: _203  and  _204
REMARK   70  A    between atoms: _205  and  ZN_443
REMARK   71  A    between atoms: _209  and  _211
REMARK   72  A    between atoms: _211  and  _212
REMARK   73  A    between atoms: _211  and  _214
REMARK   74  A    between atoms: _214  and  _215
REMARK   75  A    between atoms: _218  and  _220
REMARK   76  A    between atoms: _220  and  _221
REMARK   77  A    between atoms: _220  and  _223
REMARK   78  A    between atoms: _226  and  _228
REMARK   79  A    between atoms: _228  and  _229
REMARK   80  A    between atoms: _228  and  _231
REMARK   81  A    between atoms: _231  and  _232
REMARK   82  A    between atoms: _237  and  _239
REMARK   83  A    between atoms: _239  and  _240
REMARK   84  A    between atoms: _239  and  _242
REMARK   85  A    between atoms: _242  and  _243
REMARK   86  A    between atoms: _249  and  _251
REMARK   87  A    between atoms: _251  and  _252
REMARK   88  A    between atoms: _254  and  _256
REMARK   89  A    between atoms: _256  and  _257
REMARK   90  A    between atoms: _260  and  _262
REMARK   91  A    between atoms: _262  and  _263
REMARK   92  A    between atoms: _262  and  _265
REMARK   93  A    between atoms: _268  and  _270
REMARK   94  A    between atoms: _270  and  _271
REMARK   95  A    between atoms: _270  and  _273
REMARK   96  A    between atoms: _273  and  _274
REMARK   97  A    between atoms: _274  and  _275
REMARK   98  A    between atoms: _280  and  _282
REMARK   99  A    between atoms: _282  and  _283
REMARK  100  A    between atoms: _282  and  _285
REMARK  101  A    between atoms: _285  and  _286
REMARK  102  A    between atoms: _289  and  _291
REMARK  103  A    between atoms: _291  and  _292
REMARK  104  A    between atoms: _295  and  _297
REMARK  105  A    between atoms: _297  and  _298
REMARK  106  A    between atoms: _297  and  _300
REMARK  107  A    between atoms: _303  and  _305
REMARK  108  A    between atoms: _305  and  _306
REMARK  109  A    between atoms: _305  and  _308
REMARK  110  A    between atoms: _308  and  _309
REMARK  111  A    between atoms: _312  and  _314
REMARK  112  A    between atoms: _314  and  _315
REMARK  113  A    between atoms: _317  and  _319
REMARK  114  A    between atoms: _319  and  _320
REMARK  115  A    between atoms: _319  and  _322
REMARK  116  A    between atoms: _322  and  _323
REMARK  117  A    between atoms: _325  and  _327
REMARK  118  A    between atoms: _327  and  _328
REMARK  119  A    between atoms: _327  and  _330
REMARK  120  A    between atoms: _330  and  _331
REMARK  121  A    between atoms: _334  and  _336
REMARK  122  A    between atoms: _336  and  _337
REMARK  123  A    between atoms: _336  and  _339
REMARK  124  A    between atoms: _339  and  _340
REMARK  125  A    between atoms: _343  and  _345
REMARK  126  A    between atoms: _345  and  _346
REMARK  127  A    between atoms: _345  and  _348
REMARK  128  A    between atoms: _348  and  _349
REMARK  129  A    between atoms: _353  and  _354
REMARK  130  A    between atoms: _360  and  _361
REMARK  131  A    between atoms: _366  and  _368
REMARK  132  A    between atoms: _368  and  _369
REMARK  133  A    between atoms: _368  and  _371
REMARK  134  A    between atoms: _371  and  _372
REMARK  135  A    between atoms: _375  and  _377
REMARK  136  A    between atoms: _377  and  _378
REMARK  137  A    between atoms: _377  and  _380
REMARK  138  A    between atoms: _380  and  _381
REMARK  139  A    between atoms: _384  and  _386
REMARK  140  A    between atoms: _386  and  _387
REMARK  141  A    between atoms: _386  and  _389
REMARK  142  A    between atoms: _391  and  _393
REMARK  143  A    between atoms: _393  and  _394
REMARK  144  A    between atoms: _393  and  _396
REMARK  145  A    between atoms: _399  and  _401
REMARK  146  A    between atoms: _401  and  _402
REMARK  147  A    between atoms: _401  and  _404
REMARK  148  A    between atoms: _404  and  _405
REMARK  149  A    between atoms: _415  and  _417
REMARK  150  A    between atoms: _417  and  _418
REMARK  151  A    between atoms: _417  and  _420
REMARK  152  A    between atoms: _420  and  _421
REMARK  153  A    between atoms: _426  and  _428
REMARK  154  A    between atoms: _428  and  _429
REMARK  155  A    between atoms: _428  and  _431
REMARK  156  A    between atoms: _431  and  _432
REMARK  157  A    between atoms: _432  and  _433
REMARK  158  A    between atoms: _433  and  _434
REMARK                            x       y       z     vdW  Elec       q    Type
REMARK                         _______ _______ _______ _____ _____    ______ ____
ROOT
ATOM      1  O   HOH     1      -5.997   9.425  10.814  0.00  0.00    +0.000 OA
ENDROOT
TORSDOF 0
REMARK  Name = ../refined-set-2016/3dd8/3dd8_pocket.pdb
REMARK  158 active torsions:
REMARK  status: ('A' for Active; 'I' for Inactive)
REMARK    1  A    between atoms: _1  and  _3
REMARK    2  A    between atoms: _3  and  _4
REMARK    3  A    between atoms: _3  and  _6
REMARK    4  A    between atoms: _6  and  _7
REMARK    5  A    between atoms: _17  and  _19
REMARK    6  A    between atoms: _19  and  _20
REMARK    7  A    between atoms: _19  and  _22
REMARK    8  A    between atoms: _22  and  _23
REMARK    9  A    between atoms: _28  and  _29
REMARK   10  A    between atoms: _31  and  _33
REMARK   11  A    between atoms: _33  and  _34
REMARK   12  A    between atoms: _33  and  _36
REMARK   13  A    between atoms: _36  and  _37
REMARK   14  A    between atoms: _43  and  _45
REMARK   15  A    between atoms: _45  and  _46
REMARK   16  A    between atoms: _45  and  _48
REMARK   17  A    between atoms: _48  and  _49
REMARK   18  A    between atoms: _52  and  _53
REMARK   19  A    between atoms: _58  and  _60
REMARK   20  A    between atoms: _60  and  _61
REMARK   21  A    between atoms: _60  and  _63
REMARK   22  A    between atoms: _63  and  _64
REMARK   23  A    between atoms: _69  and  _71
REMARK   24  A    between atoms: _71  and  _72
REMARK   25  A    between atoms: _71  and  _74
REMARK   26  A    between atoms: _74  and  _75
REMARK   27  A    between atoms: _80  and  _82
REMARK   28  A    between atoms: _82  and  _83
REMARK   29  A    between atoms: _82  and  _85
REMARK   30  A    between atoms: _85  and  _86
REMARK   31  A    between atoms: _91  and  _93
REMARK   32  A    between atoms: _93  and  _94
REMARK   33  A    between atoms: _93  and  _96
REMARK   34  A    between atoms: _96  and  _97
REMARK   35  A    between atoms: _100  and  _102
REMARK   36  A    between atoms: _102  and  _103
REMARK   37  A    between atoms: _102  and  _105
REMARK   38  A    between atoms: _105  and  _106
REMARK   39  A    between atoms: _106  and  _107
REMARK   40  A    between atoms: _112  and  _114
REMARK   41  A    between atoms: _114  and  _115
REMARK   42  A    between atoms: _114  and  _117
REMARK   43  A    between atoms: _117  and  _118
REMARK   44  A    between atoms: _124  and  _126
REMARK   45  A    between atoms: _137  and  _140
REMARK   46  A    between atoms: _140  and  _141
REMARK   47  A    between atoms: _149  and  _150
REMARK   48  A    between atoms: _158  and  _160
REMARK   49  A    between atoms: _160  and  _161
REMARK   50  A    between atoms: _160  and  _163
REMARK   51  A    between atoms: _163  and  _164
REMARK   52  A    between atoms: _164  and  _165
REMARK   53  A    between atoms: _168  and  _170
REMARK   54  A    between atoms: _170  and  _171
REMARK   55  A    between atoms: _170  and  _173
REMARK   56  A    between atoms: _173  and  _174
REMARK   57  A    between atoms: _179  and  _181
REMARK   58  A    between atoms: _181  and  _182
REMARK   59  A    between atoms: _181  and  _184
REMARK   60  A    between atoms: _184  and  _185
REMARK   61  A    between atoms: _185  and  _186
REMARK   62  A    between atoms: _189  and  _191
REMARK   63  A    between atoms: _191  and  _192
REMARK   64  A    between atoms: _191  and  _194
REMARK   65  A    between atoms: _194  and  _195
REMARK   66  A    between atoms: _198  and  _200
REMARK   67  A    between atoms: _200  and  _201
REMARK   68  A    between atoms: _200  and  _203
REMARK   69  A    between atoms: _203  and  _204
REMARK   70  A    between atoms: _205  and  ZN_443
REMARK   71  A    between atoms: _209  and  _211
REMARK   72  A    between atoms: _211  and  _212
REMARK   73  A    between atoms: _211  and  _214
REMARK   74  A    between atoms: _214  and  _215
REMARK   75  A    between atoms: _218  and  _220
REMARK   76  A    between atoms: _220  and  _221
REMARK   77  A    between atoms: _220  and  _223
REMARK   78  A    between atoms: _226  and  _228
REMARK   79  A    between atoms: _228  and  _229
REMARK   80  A    between atoms: _228  and  _231
REMARK   81  A    between atoms: _231  and  _232
REMARK   82  A    between atoms: _237  and  _239
REMARK   83  A    between atoms: _239  and  _240
REMARK   84  A    between atoms: _239  and  _242
REMARK   85  A    between atoms: _242  and  _243
REMARK   86  A    between atoms: _249  and  _251
REMARK   87  A    between atoms: _251  and  _252
REMARK   88  A    between atoms: _254  and  _256
REMARK   89  A    between atoms: _256  and  _257
REMARK   90  A    between atoms: _260  and  _262
REMARK   91  A    between atoms: _262  and  _263
REMARK   92  A    between atoms: _262  and  _265
REMARK   93  A    between atoms: _268  and  _270
REMARK   94  A    between atoms: _270  and  _271
REMARK   95  A    between atoms: _270  and  _273
REMARK   96  A    between atoms: _273  and  _274
REMARK   97  A    between atoms: _274  and  _275
REMARK   98  A    between atoms: _280  and  _282
REMARK   99  A    between atoms: _282  and  _283
REMARK  100  A    between atoms: _282  and  _285
REMARK  101  A    between atoms: _285  and  _286
REMARK  102  A    between atoms: _289  and  _291
REMARK  103  A    between atoms: _291  and  _292
REMARK  104  A    between atoms: _295  and  _297
REMARK  105  A    between atoms: _297  and  _298
REMARK  106  A    between atoms: _297  and  _300
REMARK  107  A    between atoms: _303  and  _305
REMARK  108  A    between atoms: _305  and  _306
REMARK  109  A    between atoms: _305  and  _308
REMARK  110  A    between atoms: _308  and  _309
REMARK  111  A    between atoms: _312  and  _314
REMARK  112  A    between atoms: _314  and  _315
REMARK  113  A    between atoms: _317  and  _319
REMARK  114  A    between atoms: _319  and  _320
REMARK  115  A    between atoms: _319  and  _322
REMARK  116  A    between atoms: _322  and  _323
REMARK  117  A    between atoms: _325  and  _327
REMARK  118  A    between atoms: _327  and  _328
REMARK  119  A    between atoms: _327  and  _330
REMARK  120  A    between atoms: _330  and  _331
REMARK  121  A    between atoms: _334  and  _336
REMARK  122  A    between atoms: _336  and  _337
REMARK  123  A    between atoms: _336  and  _339
REMARK  124  A    between atoms: _339  and  _340
REMARK  125  A    between atoms: _343  and  _345
REMARK  126  A    between atoms: _345  and  _346
REMARK  127  A    between atoms: _345  and  _348
REMARK  128  A    between atoms: _348  and  _349
REMARK  129  A    between atoms: _353  and  _354
REMARK  130  A    between atoms: _360  and  _361
REMARK  131  A    between atoms: _366  and  _368
REMARK  132  A    between atoms: _368  and  _369
REMARK  133  A    between atoms: _368  and  _371
REMARK  134  A    between atoms: _371  and  _372
REMARK  135  A    between atoms: _375  and  _377
REMARK  136  A    between atoms: _377  and  _378
REMARK  137  A    between atoms: _377  and  _380
REMARK  138  A    between atoms: _380  and  _381
REMARK  139  A    between atoms: _384  and  _386
REMARK  140  A    between atoms: _386  and  _387
REMARK  141  A    between atoms: _386  and  _389
REMARK  142  A    between atoms: _391  and  _393
REMARK  143  A    between atoms: _393  and  _394
REMARK  144  A    between atoms: _393  and  _396
REMARK  145  A    between atoms: _399  and  _401
REMARK  146  A    between atoms: _401  and  _402
REMARK  147  A    between atoms: _401  and  _404
REMARK  148  A    between atoms: _404  and  _405
REMARK  149  A    between atoms: _415  and  _417
REMARK  150  A    between atoms: _417  and  _418
REMARK  151  A    between atoms: _417  and  _420
REMARK  152  A    between atoms: _420  and  _421
REMARK  153  A    between atoms: _426  and  _428
REMARK  154  A    between atoms: _428  and  _429
REMARK  155  A    between atoms: _428  and  _431
REMARK  156  A    between atoms: _431  and  _432
REMARK  157  A    between atoms: _432  and  _433
REMARK  158  A    between atoms: _433  and  _434
REMARK                            x       y       z     vdW  Elec       q    Type
REMARK                         _______ _______ _______ _____ _____    ______ ____
ROOT
ATOM      1  O   HOH     1      -0.266  14.441  16.502  0.00  0.00    +0.000 OA
ENDROOT
TORSDOF 0
REMARK  Name = ../refined-set-2016/3dd8/3dd8_pocket.pdb
REMARK  158 active torsions:
REMARK  status: ('A' for Active; 'I' for Inactive)
REMARK    1  A    between atoms: _1  and  _3
REMARK    2  A    between atoms: _3  and  _4
REMARK    3  A    between atoms: _3  and  _6
REMARK    4  A    between atoms: _6  and  _7
REMARK    5  A    between atoms: _17  and  _19
REMARK    6  A    between atoms: _19  and  _20
REMARK    7  A    between atoms: _19  and  _22
REMARK    8  A    between atoms: _22  and  _23
REMARK    9  A    between atoms: _28  and  _29
REMARK   10  A    between atoms: _31  and  _33
REMARK   11  A    between atoms: _33  and  _34
REMARK   12  A    between atoms: _33  and  _36
REMARK   13  A    between atoms: _36  and  _37
REMARK   14  A    between atoms: _43  and  _45
REMARK   15  A    between atoms: _45  and  _46
REMARK   16  A    between atoms: _45  and  _48
REMARK   17  A    between atoms: _48  and  _49
REMARK   18  A    between atoms: _52  and  _53
REMARK   19  A    between atoms: _58  and  _60
REMARK   20  A    between atoms: _60  and  _61
REMARK   21  A    between atoms: _60  and  _63
REMARK   22  A    between atoms: _63  and  _64
REMARK   23  A    between atoms: _69  and  _71
REMARK   24  A    between atoms: _71  and  _72
REMARK   25  A    between atoms: _71  and  _74
REMARK   26  A    between atoms: _74  and  _75
REMARK   27  A    between atoms: _80  and  _82
REMARK   28  A    between atoms: _82  and  _83
REMARK   29  A    between atoms: _82  and  _85
REMARK   30  A    between atoms: _85  and  _86
REMARK   31  A    between atoms: _91  and  _93
REMARK   32  A    between atoms: _93  and  _94
REMARK   33  A    between atoms: _93  and  _96
REMARK   34  A    between atoms: _96  and  _97
REMARK   35  A    between atoms: _100  and  _102
REMARK   36  A    between atoms: _102  and  _103
REMARK   37  A    between atoms: _102  and  _105
REMARK   38  A    between atoms: _105  and  _106
REMARK   39  A    between atoms: _106  and  _107
REMARK   40  A    between atoms: _112  and  _114
REMARK   41  A    between atoms: _114  and  _115
REMARK   42  A    between atoms: _114  and  _117
REMARK   43  A    between atoms: _117  and  _118
REMARK   44  A    between atoms: _124  and  _126
REMARK   45  A    between atoms: _137  and  _140
REMARK   46  A    between atoms: _140  and  _141
REMARK   47  A    between atoms: _149  and  _150
REMARK   48  A    between atoms: _158  and  _160
REMARK   49  A    between atoms: _160  and  _161
REMARK   50  A    between atoms: _160  and  _163
REMARK   51  A    between atoms: _163  and  _164
REMARK   52  A    between atoms: _164  and  _165
REMARK   53  A    between atoms: _168  and  _170
REMARK   54  A    between atoms: _170  and  _171
REMARK   55  A    between atoms: _170  and  _173
REMARK   56  A    between atoms: _173  and  _174
REMARK   57  A    between atoms: _179  and  _181
REMARK   58  A    between atoms: _181  and  _182
REMARK   59  A    between atoms: _181  and  _184
REMARK   60  A    between atoms: _184  and  _185
REMARK   61  A    between atoms: _185  and  _186
REMARK   62  A    between atoms: _189  and  _191
REMARK   63  A    between atoms: _191  and  _192
REMARK   64  A    between atoms: _191  and  _194
REMARK   65  A    between atoms: _194  and  _195
REMARK   66  A    between atoms: _198  and  _200
REMARK   67  A    between atoms: _200  and  _201
REMARK   68  A    between atoms: _200  and  _203
REMARK   69  A    between atoms: _203  and  _204
REMARK   70  A    between atoms: _205  and  ZN_443
REMARK   71  A    between atoms: _209  and  _211
REMARK   72  A    between atoms: _211  and  _212
REMARK   73  A    between atoms: _211  and  _214
REMARK   74  A    between atoms: _214  and  _215
REMARK   75  A    between atoms: _218  and  _220
REMARK   76  A    between atoms: _220  and  _221
REMARK   77  A    between atoms: _220  and  _223
REMARK   78  A    between atoms: _226  and  _228
REMARK   79  A    between atoms: _228  and  _229
REMARK   80  A    between atoms: _228  and  _231
REMARK   81  A    between atoms: _231  and  _232
REMARK   82  A    between atoms: _237  and  _239
REMARK   83  A    between atoms: _239  and  _240
REMARK   84  A    between atoms: _239  and  _242
REMARK   85  A    between atoms: _242  and  _243
REMARK   86  A    between atoms: _249  and  _251
REMARK   87  A    between atoms: _251  and  _252
REMARK   88  A    between atoms: _254  and  _256
REMARK   89  A    between atoms: _256  and  _257
REMARK   90  A    between atoms: _260  and  _262
REMARK   91  A    between atoms: _262  and  _263
REMARK   92  A    between atoms: _262  and  _265
REMARK   93  A    between atoms: _268  and  _270
REMARK   94  A    between atoms: _270  and  _271
REMARK   95  A    between atoms: _270  and  _273
REMARK   96  A    between atoms: _273  and  _274
REMARK   97  A    between atoms: _274  and  _275
REMARK   98  A    between atoms: _280  and  _282
REMARK   99  A    between atoms: _282  and  _283
REMARK  100  A    between atoms: _282  and  _285
REMARK  101  A    between atoms: _285  and  _286
REMARK  102  A    between atoms: _289  and  _291
REMARK  103  A    between atoms: _291  and  _292
REMARK  104  A    between atoms: _295  and  _297
REMARK  105  A    between atoms: _297  and  _298
REMARK  106  A    between atoms: _297  and  _300
REMARK  107  A    between atoms: _303  and  _305
REMARK  108  A    between atoms: _305  and  _306
REMARK  109  A    between atoms: _305  and  _308
REMARK  110  A    between atoms: _308  and  _309
REMARK  111  A    between atoms: _312  and  _314
REMARK  112  A    between atoms: _314  and  _315
REMARK  113  A    between atoms: _317  and  _319
REMARK  114  A    between atoms: _319  and  _320
REMARK  115  A    between atoms: _319  and  _322
REMARK  116  A    between atoms: _322  and  _323
REMARK  117  A    between atoms: _325  and  _327
REMARK  118  A    between atoms: _327  and  _328
REMARK  119  A    between atoms: _327  and  _330
REMARK  120  A    between atoms: _330  and  _331
REMARK  121  A    between atoms: _334  and  _336
REMARK  122  A    between atoms: _336  and  _337
REMARK  123  A    between atoms: _336  and  _339
REMARK  124  A    between atoms: _339  and  _340
REMARK  125  A    between atoms: _343  and  _345
REMARK  126  A    between atoms: _345  and  _346
REMARK  127  A    between atoms: _345  and  _348
REMARK  128  A    between atoms: _348  and  _349
REMARK  129  A    between atoms: _353  and  _354
REMARK  130  A    between atoms: _360  and  _361
REMARK  131  A    between atoms: _366  and  _368
REMARK  132  A    between atoms: _368  and  _369
REMARK  133  A    between atoms: _368  and  _371
REMARK  134  A    between atoms: _371  and  _372
REMARK  135  A    between atoms: _375  and  _377
REMARK  136  A    between atoms: _377  and  _378
REMARK  137  A    between atoms: _377  and  _380
REMARK  138  A    between atoms: _380  and  _381
REMARK  139  A    between atoms: _384  and  _386
REMARK  140  A    between atoms: _386  and  _387
REMARK  141  A    between atoms: _386  and  _389
REMARK  142  A    between atoms: _391  and  _393
REMARK  143  A    between atoms: _393  and  _394
REMARK  144  A    between atoms: _393  and  _396
REMARK  145  A    between atoms: _399  and  _401
REMARK  146  A    between atoms: _401  and  _402
REMARK  147  A    between atoms: _401  and  _404
REMARK  148  A    between atoms: _404  and  _405
REMARK  149  A    between atoms: _415  and  _417
REMARK  150  A    between atoms: _417  and  _418
REMARK  151  A    between atoms: _417  and  _420
REMARK  152  A    between atoms: _420  and  _421
REMARK  153  A    between atoms: _426  and  _428
REMARK  154  A    between atoms: _428  and  _429
REMARK  155  A    between atoms: _428  and  _431
REMARK  156  A    between atoms: _431  and  _432
REMARK  157  A    between atoms: _432  and  _433
REMARK  158  A    between atoms: _433  and  _434
REMARK                            x       y       z     vdW  Elec       q    Type
REMARK                         _______ _______ _______ _____ _____    ______ ____
ROOT
ATOM      1  O   HOH     1       4.947  11.168  20.957  0.00  0.00    +0.000 OA
ENDROOT
TORSDOF 0
