REMARK  Name = ../refined-set-2016/3g2l/3g2l_pocket.pdb
REMARK  260 active torsions:
REMARK  status: ('A' for Active; 'I' for Inactive)
REMARK    1  A    between atoms: _1  and  _3
REMARK    2  A    between atoms: _3  and  _4
REMARK    3  A    between atoms: _3  and  _6
REMARK    4  A    between atoms: _6  and  _7
REMARK    5  A    between atoms: _12  and  _13
REMARK    6  A    between atoms: _15  and  _17
REMARK    7  A    between atoms: _17  and  _18
REMARK    8  A    between atoms: _17  and  _20
REMARK    9  A    between atoms: _20  and  _21
REMARK   10  A    between atoms: _21  and  _22
REMARK   11  A    between atoms: _25  and  _27
REMARK   12  A    between atoms: _27  and  _28
REMARK   13  A    between atoms: _27  and  _30
REMARK   14  A    between atoms: _30  and  _31
REMARK   15  A    between atoms: _36  and  _38
REMARK   16  A    between atoms: _38  and  _39
REMARK   17  A    between atoms: _41  and  _43
REMARK   18  A    between atoms: _43  and  _44
REMARK   19  A    between atoms: _46  and  _48
REMARK   20  A    between atoms: _48  and  _49
REMARK   21  A    between atoms: _48  and  _51
REMARK   22  A    between atoms: _51  and  _52
REMARK   23  A    between atoms: _55  and  _57
REMARK   24  A    between atoms: _57  and  _58
REMARK   25  A    between atoms: _60  and  _62
REMARK   26  A    between atoms: _62  and  _63
REMARK   27  A    between atoms: _62  and  _65
REMARK   28  A    between atoms: _65  and  _66
REMARK   29  A    between atoms: _66  and  _67
REMARK   30  A    between atoms: _67  and  _68
REMARK   31  A    between atoms: _77  and  _79
REMARK   32  A    between atoms: _79  and  _80
REMARK   33  A    between atoms: _79  and  _82
REMARK   34  A    between atoms: _82  and  _83
REMARK   35  A    between atoms: _86  and  _88
REMARK   36  A    between atoms: _88  and  _89
REMARK   37  A    between atoms: _92  and  _94
REMARK   38  A    between atoms: _94  and  _95
REMARK   39  A    between atoms: _94  and  _97
REMARK   40  A    between atoms: _97  and  _98
REMARK   41  A    between atoms: _104  and  _106
REMARK   42  A    between atoms: _106  and  _107
REMARK   43  A    between atoms: _106  and  _109
REMARK   44  A    between atoms: _109  and  _110
REMARK   45  A    between atoms: _115  and  _117
REMARK   46  A    between atoms: _117  and  _118
REMARK   47  A    between atoms: _117  and  _120
REMARK   48  A    between atoms: _120  and  _121
REMARK   49  A    between atoms: _124  and  _126
REMARK   50  A    between atoms: _126  and  _127
REMARK   51  A    between atoms: _126  and  _129
REMARK   52  A    between atoms: _129  and  _130
REMARK   53  A    between atoms: _135  and  _137
REMARK   54  A    between atoms: _137  and  _138
REMARK   55  A    between atoms: _137  and  _140
REMARK   56  A    between atoms: _140  and  _141
REMARK   57  A    between atoms: _147  and  _149
REMARK   58  A    between atoms: _149  and  _150
REMARK   59  A    between atoms: _149  and  _152
REMARK   60  A    between atoms: _152  and  _153
REMARK   61  A    between atoms: _159  and  _161
REMARK   62  A    between atoms: _161  and  _162
REMARK   63  A    between atoms: _161  and  _164
REMARK   64  A    between atoms: _164  and  _165
REMARK   65  A    between atoms: _165  and  _166
REMARK   66  A    between atoms: _169  and  _171
REMARK   67  A    between atoms: _171  and  _172
REMARK   68  A    between atoms: _171  and  _174
REMARK   69  A    between atoms: _174  and  _175
REMARK   70  A    between atoms: _175  and  _176
REMARK   71  A    between atoms: _176  and  _177
REMARK   72  A    between atoms: _186  and  _188
REMARK   73  A    between atoms: _188  and  _189
REMARK   74  A    between atoms: _188  and  _191
REMARK   75  A    between atoms: _191  and  _192
REMARK   76  A    between atoms: _197  and  _199
REMARK   77  A    between atoms: _199  and  _200
REMARK   78  A    between atoms: _199  and  _202
REMARK   79  A    between atoms: _202  and  _203
REMARK   80  A    between atoms: _206  and  _208
REMARK   81  A    between atoms: _208  and  _209
REMARK   82  A    between atoms: _208  and  _211
REMARK   83  A    between atoms: _211  and  _212
REMARK   84  A    between atoms: _215  and  _217
REMARK   85  A    between atoms: _217  and  _218
REMARK   86  A    between atoms: _217  and  _220
REMARK   87  A    between atoms: _220  and  _221
REMARK   88  A    between atoms: _226  and  _228
REMARK   89  A    between atoms: _228  and  _229
REMARK   90  A    between atoms: _228  and  _231
REMARK   91  A    between atoms: _231  and  _232
REMARK   92  A    between atoms: _235  and  _237
REMARK   93  A    between atoms: _237  and  _238
REMARK   94  A    between atoms: _237  and  _240
REMARK   95  A    between atoms: _240  and  _241
REMARK   96  A    between atoms: _246  and  _248
REMARK   97  A    between atoms: _248  and  _249
REMARK   98  A    between atoms: _248  and  _251
REMARK   99  A    between atoms: _251  and  _252
REMARK  100  A    between atoms: _257  and  _259
REMARK  101  A    between atoms: _259  and  _260
REMARK  102  A    between atoms: _259  and  _262
REMARK  103  A    between atoms: _262  and  _263
REMARK  104  A    between atoms: _266  and  _268
REMARK  105  A    between atoms: _268  and  _269
REMARK  106  A    between atoms: _268  and  _271
REMARK  107  A    between atoms: _274  and  _276
REMARK  108  A    between atoms: _276  and  _277
REMARK  109  A    between atoms: _276  and  _279
REMARK  110  A    between atoms: _279  and  _280
REMARK  111  A    between atoms: _284  and  _285
REMARK  112  A    between atoms: _290  and  _292
REMARK  113  A    between atoms: _292  and  _293
REMARK  114  A    between atoms: _292  and  _295
REMARK  115  A    between atoms: _295  and  _296
REMARK  116  A    between atoms: _296  and  _297
REMARK  117  A    between atoms: _300  and  _302
REMARK  118  A    between atoms: _302  and  _303
REMARK  119  A    between atoms: _306  and  _308
REMARK  120  A    between atoms: _308  and  _309
REMARK  121  A    between atoms: _308  and  _311
REMARK  122  A    between atoms: _311  and  _312
REMARK  123  A    between atoms: _315  and  _317
REMARK  124  A    between atoms: _317  and  _318
REMARK  125  A    between atoms: _317  and  _320
REMARK  126  A    between atoms: _320  and  _321
REMARK  127  A    between atoms: _321  and  _322
REMARK  128  A    between atoms: _325  and  _327
REMARK  129  A    between atoms: _327  and  _328
REMARK  130  A    between atoms: _327  and  _330
REMARK  131  A    between atoms: _330  and  _331
REMARK  132  A    between atoms: _336  and  _338
REMARK  133  A    between atoms: _338  and  _339
REMARK  134  A    between atoms: _341  and  _343
REMARK  135  A    between atoms: _343  and  _344
REMARK  136  A    between atoms: _343  and  _346
REMARK  137  A    between atoms: _349  and  _351
REMARK  138  A    between atoms: _351  and  _352
REMARK  139  A    between atoms: _355  and  _357
REMARK  140  A    between atoms: _357  and  _358
REMARK  141  A    between atoms: _357  and  _360
REMARK  142  A    between atoms: _360  and  _361
REMARK  143  A    between atoms: _366  and  _368
REMARK  144  A    between atoms: _368  and  _369
REMARK  145  A    between atoms: _368  and  _371
REMARK  146  A    between atoms: _371  and  _372
REMARK  147  A    between atoms: _372  and  _373
REMARK  148  A    between atoms: _373  and  _374
REMARK  149  A    between atoms: _374  and  _375
REMARK  150  A    between atoms: _379  and  _381
REMARK  151  A    between atoms: _381  and  _382
REMARK  152  A    between atoms: _381  and  _384
REMARK  153  A    between atoms: _384  and  _385
REMARK  154  A    between atoms: _388  and  _390
REMARK  155  A    between atoms: _390  and  _391
REMARK  156  A    between atoms: _390  and  _393
REMARK  157  A    between atoms: _393  and  _394
REMARK  158  A    between atoms: _399  and  _401
REMARK  159  A    between atoms: _401  and  _402
REMARK  160  A    between atoms: _404  and  _406
REMARK  161  A    between atoms: _406  and  _407
REMARK  162  A    between atoms: _406  and  _409
REMARK  163  A    between atoms: _409  and  _410
REMARK  164  A    between atoms: _410  and  _411
REMARK  165  A    between atoms: _411  and  _412
REMARK  166  A    between atoms: _412  and  _413
REMARK  167  A    between atoms: _417  and  _419
REMARK  168  A    between atoms: _419  and  _420
REMARK  169  A    between atoms: _419  and  _422
REMARK  170  A    between atoms: _422  and  _423
REMARK  171  A    between atoms: _423  and  _424
REMARK  172  A    between atoms: _424  and  _425
REMARK  173  A    between atoms: _434  and  _436
REMARK  174  A    between atoms: _436  and  _437
REMARK  175  A    between atoms: _436  and  _439
REMARK  176  A    between atoms: _439  and  _440
REMARK  177  A    between atoms: _445  and  _447
REMARK  178  A    between atoms: _447  and  _448
REMARK  179  A    between atoms: _447  and  _450
REMARK  180  A    between atoms: _450  and  _451
REMARK  181  A    between atoms: _456  and  _457
REMARK  182  A    between atoms: _459  and  _461
REMARK  183  A    between atoms: _461  and  _462
REMARK  184  A    between atoms: _461  and  _464
REMARK  185  A    between atoms: _464  and  _465
REMARK  186  A    between atoms: _465  and  _466
REMARK  187  A    between atoms: _466  and  _467
REMARK  188  A    between atoms: _467  and  _468
REMARK  189  A    between atoms: _472  and  _474
REMARK  190  A    between atoms: _474  and  _475
REMARK  191  A    between atoms: _474  and  _477
REMARK  192  A    between atoms: _477  and  _478
REMARK  193  A    between atoms: _483  and  _484
REMARK  194  A    between atoms: _486  and  _488
REMARK  195  A    between atoms: _488  and  _489
REMARK  196  A    between atoms: _488  and  _491
REMARK  197  A    between atoms: _491  and  _492
REMARK  198  A    between atoms: _494  and  _496
REMARK  199  A    between atoms: _496  and  _497
REMARK  200  A    between atoms: _496  and  _499
REMARK  201  A    between atoms: _499  and  _500
REMARK  202  A    between atoms: _503  and  _505
REMARK  203  A    between atoms: _505  and  _506
REMARK  204  A    between atoms: _505  and  _508
REMARK  205  A    between atoms: _508  and  _509
REMARK  206  A    between atoms: _509  and  _510
REMARK  207  A    between atoms: _513  and  _515
REMARK  208  A    between atoms: _515  and  _516
REMARK  209  A    between atoms: _519  and  _521
REMARK  210  A    between atoms: _521  and  _522
REMARK  211  A    between atoms: _521  and  _524
REMARK  212  A    between atoms: _524  and  _525
REMARK  213  A    between atoms: _527  and  _529
REMARK  214  A    between atoms: _529  and  _530
REMARK  215  A    between atoms: _532  and  _534
REMARK  216  A    between atoms: _534  and  _535
REMARK  217  A    between atoms: _534  and  _537
REMARK  218  A    between atoms: _537  and  _538
REMARK  219  A    between atoms: _541  and  _543
REMARK  220  A    between atoms: _543  and  _544
REMARK  221  A    between atoms: _546  and  _548
REMARK  222  A    between atoms: _548  and  _549
REMARK  223  A    between atoms: _548  and  _551
REMARK  224  A    between atoms: _551  and  _552
REMARK  225  A    between atoms: _557  and  _559
REMARK  226  A    between atoms: _559  and  _560
REMARK  227  A    between atoms: _559  and  _562
REMARK  228  A    between atoms: _562  and  _563
REMARK  229  A    between atoms: _563  and  _564
REMARK  230  A    between atoms: _571  and  _572
REMARK  231  A    between atoms: _572  and  _588
REMARK  232  A    between atoms: _573  and  _575
REMARK  233  A    between atoms: _575  and  _576
REMARK  234  A    between atoms: _576  and  _577
REMARK  235  A    between atoms: _581  and  _583
REMARK  236  A    between atoms: _583  and  _584
REMARK  237  A    between atoms: _583  and  _591
REMARK  238  A    between atoms: _584  and  _585
REMARK  239  A    between atoms: _585  and  _586
REMARK  240  A    between atoms: _586  and  _587
REMARK  241  A    between atoms: _587  and  _588
REMARK  242  A    between atoms: _593  and  _595
REMARK  243  A    between atoms: _595  and  _596
REMARK  244  A    between atoms: _595  and  _598
REMARK  245  A    between atoms: _598  and  _599
REMARK  246  A    between atoms: _602  and  _604
REMARK  247  A    between atoms: _604  and  _605
REMARK  248  A    between atoms: _607  and  _609
REMARK  249  A    between atoms: _609  and  _610
REMARK  250  A    between atoms: _613  and  _615
REMARK  251  A    between atoms: _615  and  _616
REMARK  252  A    between atoms: _615  and  _618
REMARK  253  A    between atoms: _618  and  _619
REMARK  254  A    between atoms: _619  and  _620
REMARK  255  A    between atoms: _620  and  _621
REMARK  256  A    between atoms: _630  and  _632
REMARK  257  A    between atoms: _632  and  _633
REMARK  258  A    between atoms: _632  and  _635
REMARK  259  A    between atoms: _635  and  _636
REMARK  260  A    between atoms: _641  and  _642
REMARK                            x       y       z     vdW  Elec       q    Type
REMARK                         _______ _______ _______ _____ _____    ______ ____
ROOT
ATOM      1  CG  TYR A   1      33.451  11.440  36.289  0.00  0.00    -0.020 A 
ATOM      2  CD2 TYR A   1      33.070  12.780  36.370  0.00  0.00    -0.001 A 
ATOM      3  CE2 TYR A   1      33.182  13.620  35.273  0.00  0.00    +0.036 A 
ATOM      4  CZ  TYR A   1      33.687  13.123  34.083  0.00  0.00    +0.134 A 
ATOM      5  CE1 TYR A   1      34.076  11.799  33.978  0.00  0.00    +0.036 A 
ATOM      6  CD1 TYR A   1      33.956  10.966  35.078  0.00  0.00    -0.001 A 
ENDROOT
BRANCH   4   7
ATOM      7  OH  TYR A   1      33.797  13.955  32.992  0.00  0.00    -0.506 OA
ATOM      8  HH  TYR A   1      34.172  13.448  32.229  0.00  0.00    +0.292 HD
ENDBRANCH   4   7
BRANCH   1   9
ATOM      9  CB  TYR A   1      33.350  10.536  37.483  0.00  0.00    +0.051 C 
BRANCH   9  10
ATOM     10  CA  TYR A   1      34.678  10.430  38.232  0.00  0.00    +0.137 C 
BRANCH  10  11
ATOM     11  N   TYR A   1      34.713   9.243  39.057  0.00  0.00    -0.239 NA
ATOM     12  H   TYR A   1      33.850   8.945  39.555  0.00  0.00    +0.142 HD
ENDBRANCH  10  11
BRANCH  10  13
ATOM     13  C   TYR A   1      34.944  11.675  39.078  0.00  0.00    +0.224 C 
ATOM     14  O   TYR A   1      34.070  12.123  39.821  0.00  0.00    -0.287 OA
ENDBRANCH  10  13
ENDBRANCH   9  10
ENDBRANCH   1   9
TORSDOF 5
REMARK  Name = ../refined-set-2016/3g2l/3g2l_pocket.pdb
REMARK  260 active torsions:
REMARK  status: ('A' for Active; 'I' for Inactive)
REMARK    1  A    between atoms: _1  and  _3
REMARK    2  A    between atoms: _3  and  _4
REMARK    3  A    between atoms: _3  and  _6
REMARK    4  A    between atoms: _6  and  _7
REMARK    5  A    between atoms: _12  and  _13
REMARK    6  A    between atoms: _15  and  _17
REMARK    7  A    between atoms: _17  and  _18
REMARK    8  A    between atoms: _17  and  _20
REMARK    9  A    between atoms: _20  and  _21
REMARK   10  A    between atoms: _21  and  _22
REMARK   11  A    between atoms: _25  and  _27
REMARK   12  A    between atoms: _27  and  _28
REMARK   13  A    between atoms: _27  and  _30
REMARK   14  A    between atoms: _30  and  _31
REMARK   15  A    between atoms: _36  and  _38
REMARK   16  A    between atoms: _38  and  _39
REMARK   17  A    between atoms: _41  and  _43
REMARK   18  A    between atoms: _43  and  _44
REMARK   19  A    between atoms: _46  and  _48
REMARK   20  A    between atoms: _48  and  _49
REMARK   21  A    between atoms: _48  and  _51
REMARK   22  A    between atoms: _51  and  _52
REMARK   23  A    between atoms: _55  and  _57
REMARK   24  A    between atoms: _57  and  _58
REMARK   25  A    between atoms: _60  and  _62
REMARK   26  A    between atoms: _62  and  _63
REMARK   27  A    between atoms: _62  and  _65
REMARK   28  A    between atoms: _65  and  _66
REMARK   29  A    between atoms: _66  and  _67
REMARK   30  A    between atoms: _67  and  _68
REMARK   31  A    between atoms: _77  and  _79
REMARK   32  A    between atoms: _79  and  _80
REMARK   33  A    between atoms: _79  and  _82
REMARK   34  A    between atoms: _82  and  _83
REMARK   35  A    between atoms: _86  and  _88
REMARK   36  A    between atoms: _88  and  _89
REMARK   37  A    between atoms: _92  and  _94
REMARK   38  A    between atoms: _94  and  _95
REMARK   39  A    between atoms: _94  and  _97
REMARK   40  A    between atoms: _97  and  _98
REMARK   41  A    between atoms: _104  and  _106
REMARK   42  A    between atoms: _106  and  _107
REMARK   43  A    between atoms: _106  and  _109
REMARK   44  A    between atoms: _109  and  _110
REMARK   45  A    between atoms: _115  and  _117
REMARK   46  A    between atoms: _117  and  _118
REMARK   47  A    between atoms: _117  and  _120
REMARK   48  A    between atoms: _120  and  _121
REMARK   49  A    between atoms: _124  and  _126
REMARK   50  A    between atoms: _126  and  _127
REMARK   51  A    between atoms: _126  and  _129
REMARK   52  A    between atoms: _129  and  _130
REMARK   53  A    between atoms: _135  and  _137
REMARK   54  A    between atoms: _137  and  _138
REMARK   55  A    between atoms: _137  and  _140
REMARK   56  A    between atoms: _140  and  _141
REMARK   57  A    between atoms: _147  and  _149
REMARK   58  A    between atoms: _149  and  _150
REMARK   59  A    between atoms: _149  and  _152
REMARK   60  A    between atoms: _152  and  _153
REMARK   61  A    between atoms: _159  and  _161
REMARK   62  A    between atoms: _161  and  _162
REMARK   63  A    between atoms: _161  and  _164
REMARK   64  A    between atoms: _164  and  _165
REMARK   65  A    between atoms: _165  and  _166
REMARK   66  A    between atoms: _169  and  _171
REMARK   67  A    between atoms: _171  and  _172
REMARK   68  A    between atoms: _171  and  _174
REMARK   69  A    between atoms: _174  and  _175
REMARK   70  A    between atoms: _175  and  _176
REMARK   71  A    between atoms: _176  and  _177
REMARK   72  A    between atoms: _186  and  _188
REMARK   73  A    between atoms: _188  and  _189
REMARK   74  A    between atoms: _188  and  _191
REMARK   75  A    between atoms: _191  and  _192
REMARK   76  A    between atoms: _197  and  _199
REMARK   77  A    between atoms: _199  and  _200
REMARK   78  A    between atoms: _199  and  _202
REMARK   79  A    between atoms: _202  and  _203
REMARK   80  A    between atoms: _206  and  _208
REMARK   81  A    between atoms: _208  and  _209
REMARK   82  A    between atoms: _208  and  _211
REMARK   83  A    between atoms: _211  and  _212
REMARK   84  A    between atoms: _215  and  _217
REMARK   85  A    between atoms: _217  and  _218
REMARK   86  A    between atoms: _217  and  _220
REMARK   87  A    between atoms: _220  and  _221
REMARK   88  A    between atoms: _226  and  _228
REMARK   89  A    between atoms: _228  and  _229
REMARK   90  A    between atoms: _228  and  _231
REMARK   91  A    between atoms: _231  and  _232
REMARK   92  A    between atoms: _235  and  _237
REMARK   93  A    between atoms: _237  and  _238
REMARK   94  A    between atoms: _237  and  _240
REMARK   95  A    between atoms: _240  and  _241
REMARK   96  A    between atoms: _246  and  _248
REMARK   97  A    between atoms: _248  and  _249
REMARK   98  A    between atoms: _248  and  _251
REMARK   99  A    between atoms: _251  and  _252
REMARK  100  A    between atoms: _257  and  _259
REMARK  101  A    between atoms: _259  and  _260
REMARK  102  A    between atoms: _259  and  _262
REMARK  103  A    between atoms: _262  and  _263
REMARK  104  A    between atoms: _266  and  _268
REMARK  105  A    between atoms: _268  and  _269
REMARK  106  A    between atoms: _268  and  _271
REMARK  107  A    between atoms: _274  and  _276
REMARK  108  A    between atoms: _276  and  _277
REMARK  109  A    between atoms: _276  and  _279
REMARK  110  A    between atoms: _279  and  _280
REMARK  111  A    between atoms: _284  and  _285
REMARK  112  A    between atoms: _290  and  _292
REMARK  113  A    between atoms: _292  and  _293
REMARK  114  A    between atoms: _292  and  _295
REMARK  115  A    between atoms: _295  and  _296
REMARK  116  A    between atoms: _296  and  _297
REMARK  117  A    between atoms: _300  and  _302
REMARK  118  A    between atoms: _302  and  _303
REMARK  119  A    between atoms: _306  and  _308
REMARK  120  A    between atoms: _308  and  _309
REMARK  121  A    between atoms: _308  and  _311
REMARK  122  A    between atoms: _311  and  _312
REMARK  123  A    between atoms: _315  and  _317
REMARK  124  A    between atoms: _317  and  _318
REMARK  125  A    between atoms: _317  and  _320
REMARK  126  A    between atoms: _320  and  _321
REMARK  127  A    between atoms: _321  and  _322
REMARK  128  A    between atoms: _325  and  _327
REMARK  129  A    between atoms: _327  and  _328
REMARK  130  A    between atoms: _327  and  _330
REMARK  131  A    between atoms: _330  and  _331
REMARK  132  A    between atoms: _336  and  _338
REMARK  133  A    between atoms: _338  and  _339
REMARK  134  A    between atoms: _341  and  _343
REMARK  135  A    between atoms: _343  and  _344
REMARK  136  A    between atoms: _343  and  _346
REMARK  137  A    between atoms: _349  and  _351
REMARK  138  A    between atoms: _351  and  _352
REMARK  139  A    between atoms: _355  and  _357
REMARK  140  A    between atoms: _357  and  _358
REMARK  141  A    between atoms: _357  and  _360
REMARK  142  A    between atoms: _360  and  _361
REMARK  143  A    between atoms: _366  and  _368
REMARK  144  A    between atoms: _368  and  _369
REMARK  145  A    between atoms: _368  and  _371
REMARK  146  A    between atoms: _371  and  _372
REMARK  147  A    between atoms: _372  and  _373
REMARK  148  A    between atoms: _373  and  _374
REMARK  149  A    between atoms: _374  and  _375
REMARK  150  A    between atoms: _379  and  _381
REMARK  151  A    between atoms: _381  and  _382
REMARK  152  A    between atoms: _381  and  _384
REMARK  153  A    between atoms: _384  and  _385
REMARK  154  A    between atoms: _388  and  _390
REMARK  155  A    between atoms: _390  and  _391
REMARK  156  A    between atoms: _390  and  _393
REMARK  157  A    between atoms: _393  and  _394
REMARK  158  A    between atoms: _399  and  _401
REMARK  159  A    between atoms: _401  and  _402
REMARK  160  A    between atoms: _404  and  _406
REMARK  161  A    between atoms: _406  and  _407
REMARK  162  A    between atoms: _406  and  _409
REMARK  163  A    between atoms: _409  and  _410
REMARK  164  A    between atoms: _410  and  _411
REMARK  165  A    between atoms: _411  and  _412
REMARK  166  A    between atoms: _412  and  _413
REMARK  167  A    between atoms: _417  and  _419
REMARK  168  A    between atoms: _419  and  _420
REMARK  169  A    between atoms: _419  and  _422
REMARK  170  A    between atoms: _422  and  _423
REMARK  171  A    between atoms: _423  and  _424
REMARK  172  A    between atoms: _424  and  _425
REMARK  173  A    between atoms: _434  and  _436
REMARK  174  A    between atoms: _436  and  _437
REMARK  175  A    between atoms: _436  and  _439
REMARK  176  A    between atoms: _439  and  _440
REMARK  177  A    between atoms: _445  and  _447
REMARK  178  A    between atoms: _447  and  _448
REMARK  179  A    between atoms: _447  and  _450
REMARK  180  A    between atoms: _450  and  _451
REMARK  181  A    between atoms: _456  and  _457
REMARK  182  A    between atoms: _459  and  _461
REMARK  183  A    between atoms: _461  and  _462
REMARK  184  A    between atoms: _461  and  _464
REMARK  185  A    between atoms: _464  and  _465
REMARK  186  A    between atoms: _465  and  _466
REMARK  187  A    between atoms: _466  and  _467
REMARK  188  A    between atoms: _467  and  _468
REMARK  189  A    between atoms: _472  and  _474
REMARK  190  A    between atoms: _474  and  _475
REMARK  191  A    between atoms: _474  and  _477
REMARK  192  A    between atoms: _477  and  _478
REMARK  193  A    between atoms: _483  and  _484
REMARK  194  A    between atoms: _486  and  _488
REMARK  195  A    between atoms: _488  and  _489
REMARK  196  A    between atoms: _488  and  _491
REMARK  197  A    between atoms: _491  and  _492
REMARK  198  A    between atoms: _494  and  _496
REMARK  199  A    between atoms: _496  and  _497
REMARK  200  A    between atoms: _496  and  _499
REMARK  201  A    between atoms: _499  and  _500
REMARK  202  A    between atoms: _503  and  _505
REMARK  203  A    between atoms: _505  and  _506
REMARK  204  A    between atoms: _505  and  _508
REMARK  205  A    between atoms: _508  and  _509
REMARK  206  A    between atoms: _509  and  _510
REMARK  207  A    between atoms: _513  and  _515
REMARK  208  A    between atoms: _515  and  _516
REMARK  209  A    between atoms: _519  and  _521
REMARK  210  A    between atoms: _521  and  _522
REMARK  211  A    between atoms: _521  and  _524
REMARK  212  A    between atoms: _524  and  _525
REMARK  213  A    between atoms: _527  and  _529
REMARK  214  A    between atoms: _529  and  _530
REMARK  215  A    between atoms: _532  and  _534
REMARK  216  A    between atoms: _534  and  _535
REMARK  217  A    between atoms: _534  and  _537
REMARK  218  A    between atoms: _537  and  _538
REMARK  219  A    between atoms: _541  and  _543
REMARK  220  A    between atoms: _543  and  _544
REMARK  221  A    between atoms: _546  and  _548
REMARK  222  A    between atoms: _548  and  _549
REMARK  223  A    between atoms: _548  and  _551
REMARK  224  A    between atoms: _551  and  _552
REMARK  225  A    between atoms: _557  and  _559
REMARK  226  A    between atoms: _559  and  _560
REMARK  227  A    between atoms: _559  and  _562
REMARK  228  A    between atoms: _562  and  _563
REMARK  229  A    between atoms: _563  and  _564
REMARK  230  A    between atoms: _571  and  _572
REMARK  231  A    between atoms: _572  and  _588
REMARK  232  A    between atoms: _573  and  _575
REMARK  233  A    between atoms: _575  and  _576
REMARK  234  A    between atoms: _576  and  _577
REMARK  235  A    between atoms: _581  and  _583
REMARK  236  A    between atoms: _583  and  _584
REMARK  237  A    between atoms: _583  and  _591
REMARK  238  A    between atoms: _584  and  _585
REMARK  239  A    between atoms: _585  and  _586
REMARK  240  A    between atoms: _586  and  _587
REMARK  241  A    between atoms: _587  and  _588
REMARK  242  A    between atoms: _593  and  _595
REMARK  243  A    between atoms: _595  and  _596
REMARK  244  A    between atoms: _595  and  _598
REMARK  245  A    between atoms: _598  and  _599
REMARK  246  A    between atoms: _602  and  _604
REMARK  247  A    between atoms: _604  and  _605
REMARK  248  A    between atoms: _607  and  _609
REMARK  249  A    between atoms: _609  and  _610
REMARK  250  A    between atoms: _613  and  _615
REMARK  251  A    between atoms: _615  and  _616
REMARK  252  A    between atoms: _615  and  _618
REMARK  253  A    between atoms: _618  and  _619
REMARK  254  A    between atoms: _619  and  _620
REMARK  255  A    between atoms: _620  and  _621
REMARK  256  A    between atoms: _630  and  _632
REMARK  257  A    between atoms: _632  and  _633
REMARK  258  A    between atoms: _632  and  _635
REMARK  259  A    between atoms: _635  and  _636
REMARK  260  A    between atoms: _641  and  _642
REMARK                            x       y       z     vdW  Elec       q    Type
REMARK                         _______ _______ _______ _____ _____    ______ ____
ROOT
ATOM      1  CA  GLU A   1      31.758  20.656  38.924  0.00  0.00    +0.134 C 
ENDROOT
BRANCH   1   2
ATOM      2  N   GLU A   1      33.065  20.192  39.343  0.00  0.00    -0.239 NA
ATOM      3  H   GLU A   1      33.522  19.418  38.820  0.00  0.00    +0.142 HD
ENDBRANCH   1   2
BRANCH   1   4
ATOM      4  C   GLU A   1      30.815  19.498  38.619  0.00  0.00    +0.224 C 
ATOM      5  O   GLU A   1      31.178  18.550  37.907  0.00  0.00    -0.287 OA
ENDBRANCH   1   4
BRANCH   1   6
ATOM      6  CB  GLU A   1      31.878  21.598  37.715  0.00  0.00    +0.037 C 
BRANCH   6   7
ATOM      7  CG  GLU A   1      32.714  22.848  37.989  0.00  0.00    +0.116 C 
BRANCH   7   8
ATOM      8  CD  GLU A   1      32.640  23.876  36.874  0.00  0.00    +0.365 C 
ATOM      9  OE2 GLU A   1      33.536  24.746  36.814  0.00  0.00    -0.246 OA
ATOM     10  OE1 GLU A   1      31.690  23.819  36.064  0.00  0.00    -0.246 OA
ENDBRANCH   7   8
ENDBRANCH   6   7
ENDBRANCH   1   6
TORSDOF 5
REMARK  Name = ../refined-set-2016/3g2l/3g2l_pocket.pdb
REMARK  260 active torsions:
REMARK  status: ('A' for Active; 'I' for Inactive)
REMARK    1  A    between atoms: _1  and  _3
REMARK    2  A    between atoms: _3  and  _4
REMARK    3  A    between atoms: _3  and  _6
REMARK    4  A    between atoms: _6  and  _7
REMARK    5  A    between atoms: _12  and  _13
REMARK    6  A    between atoms: _15  and  _17
REMARK    7  A    between atoms: _17  and  _18
REMARK    8  A    between atoms: _17  and  _20
REMARK    9  A    between atoms: _20  and  _21
REMARK   10  A    between atoms: _21  and  _22
REMARK   11  A    between atoms: _25  and  _27
REMARK   12  A    between atoms: _27  and  _28
REMARK   13  A    between atoms: _27  and  _30
REMARK   14  A    between atoms: _30  and  _31
REMARK   15  A    between atoms: _36  and  _38
REMARK   16  A    between atoms: _38  and  _39
REMARK   17  A    between atoms: _41  and  _43
REMARK   18  A    between atoms: _43  and  _44
REMARK   19  A    between atoms: _46  and  _48
REMARK   20  A    between atoms: _48  and  _49
REMARK   21  A    between atoms: _48  and  _51
REMARK   22  A    between atoms: _51  and  _52
REMARK   23  A    between atoms: _55  and  _57
REMARK   24  A    between atoms: _57  and  _58
REMARK   25  A    between atoms: _60  and  _62
REMARK   26  A    between atoms: _62  and  _63
REMARK   27  A    between atoms: _62  and  _65
REMARK   28  A    between atoms: _65  and  _66
REMARK   29  A    between atoms: _66  and  _67
REMARK   30  A    between atoms: _67  and  _68
REMARK   31  A    between atoms: _77  and  _79
REMARK   32  A    between atoms: _79  and  _80
REMARK   33  A    between atoms: _79  and  _82
REMARK   34  A    between atoms: _82  and  _83
REMARK   35  A    between atoms: _86  and  _88
REMARK   36  A    between atoms: _88  and  _89
REMARK   37  A    between atoms: _92  and  _94
REMARK   38  A    between atoms: _94  and  _95
REMARK   39  A    between atoms: _94  and  _97
REMARK   40  A    between atoms: _97  and  _98
REMARK   41  A    between atoms: _104  and  _106
REMARK   42  A    between atoms: _106  and  _107
REMARK   43  A    between atoms: _106  and  _109
REMARK   44  A    between atoms: _109  and  _110
REMARK   45  A    between atoms: _115  and  _117
REMARK   46  A    between atoms: _117  and  _118
REMARK   47  A    between atoms: _117  and  _120
REMARK   48  A    between atoms: _120  and  _121
REMARK   49  A    between atoms: _124  and  _126
REMARK   50  A    between atoms: _126  and  _127
REMARK   51  A    between atoms: _126  and  _129
REMARK   52  A    between atoms: _129  and  _130
REMARK   53  A    between atoms: _135  and  _137
REMARK   54  A    between atoms: _137  and  _138
REMARK   55  A    between atoms: _137  and  _140
REMARK   56  A    between atoms: _140  and  _141
REMARK   57  A    between atoms: _147  and  _149
REMARK   58  A    between atoms: _149  and  _150
REMARK   59  A    between atoms: _149  and  _152
REMARK   60  A    between atoms: _152  and  _153
REMARK   61  A    between atoms: _159  and  _161
REMARK   62  A    between atoms: _161  and  _162
REMARK   63  A    between atoms: _161  and  _164
REMARK   64  A    between atoms: _164  and  _165
REMARK   65  A    between atoms: _165  and  _166
REMARK   66  A    between atoms: _169  and  _171
REMARK   67  A    between atoms: _171  and  _172
REMARK   68  A    between atoms: _171  and  _174
REMARK   69  A    between atoms: _174  and  _175
REMARK   70  A    between atoms: _175  and  _176
REMARK   71  A    between atoms: _176  and  _177
REMARK   72  A    between atoms: _186  and  _188
REMARK   73  A    between atoms: _188  and  _189
REMARK   74  A    between atoms: _188  and  _191
REMARK   75  A    between atoms: _191  and  _192
REMARK   76  A    between atoms: _197  and  _199
REMARK   77  A    between atoms: _199  and  _200
REMARK   78  A    between atoms: _199  and  _202
REMARK   79  A    between atoms: _202  and  _203
REMARK   80  A    between atoms: _206  and  _208
REMARK   81  A    between atoms: _208  and  _209
REMARK   82  A    between atoms: _208  and  _211
REMARK   83  A    between atoms: _211  and  _212
REMARK   84  A    between atoms: _215  and  _217
REMARK   85  A    between atoms: _217  and  _218
REMARK   86  A    between atoms: _217  and  _220
REMARK   87  A    between atoms: _220  and  _221
REMARK   88  A    between atoms: _226  and  _228
REMARK   89  A    between atoms: _228  and  _229
REMARK   90  A    between atoms: _228  and  _231
REMARK   91  A    between atoms: _231  and  _232
REMARK   92  A    between atoms: _235  and  _237
REMARK   93  A    between atoms: _237  and  _238
REMARK   94  A    between atoms: _237  and  _240
REMARK   95  A    between atoms: _240  and  _241
REMARK   96  A    between atoms: _246  and  _248
REMARK   97  A    between atoms: _248  and  _249
REMARK   98  A    between atoms: _248  and  _251
REMARK   99  A    between atoms: _251  and  _252
REMARK  100  A    between atoms: _257  and  _259
REMARK  101  A    between atoms: _259  and  _260
REMARK  102  A    between atoms: _259  and  _262
REMARK  103  A    between atoms: _262  and  _263
REMARK  104  A    between atoms: _266  and  _268
REMARK  105  A    between atoms: _268  and  _269
REMARK  106  A    between atoms: _268  and  _271
REMARK  107  A    between atoms: _274  and  _276
REMARK  108  A    between atoms: _276  and  _277
REMARK  109  A    between atoms: _276  and  _279
REMARK  110  A    between atoms: _279  and  _280
REMARK  111  A    between atoms: _284  and  _285
REMARK  112  A    between atoms: _290  and  _292
REMARK  113  A    between atoms: _292  and  _293
REMARK  114  A    between atoms: _292  and  _295
REMARK  115  A    between atoms: _295  and  _296
REMARK  116  A    between atoms: _296  and  _297
REMARK  117  A    between atoms: _300  and  _302
REMARK  118  A    between atoms: _302  and  _303
REMARK  119  A    between atoms: _306  and  _308
REMARK  120  A    between atoms: _308  and  _309
REMARK  121  A    between atoms: _308  and  _311
REMARK  122  A    between atoms: _311  and  _312
REMARK  123  A    between atoms: _315  and  _317
REMARK  124  A    between atoms: _317  and  _318
REMARK  125  A    between atoms: _317  and  _320
REMARK  126  A    between atoms: _320  and  _321
REMARK  127  A    between atoms: _321  and  _322
REMARK  128  A    between atoms: _325  and  _327
REMARK  129  A    between atoms: _327  and  _328
REMARK  130  A    between atoms: _327  and  _330
REMARK  131  A    between atoms: _330  and  _331
REMARK  132  A    between atoms: _336  and  _338
REMARK  133  A    between atoms: _338  and  _339
REMARK  134  A    between atoms: _341  and  _343
REMARK  135  A    between atoms: _343  and  _344
REMARK  136  A    between atoms: _343  and  _346
REMARK  137  A    between atoms: _349  and  _351
REMARK  138  A    between atoms: _351  and  _352
REMARK  139  A    between atoms: _355  and  _357
REMARK  140  A    between atoms: _357  and  _358
REMARK  141  A    between atoms: _357  and  _360
REMARK  142  A    between atoms: _360  and  _361
REMARK  143  A    between atoms: _366  and  _368
REMARK  144  A    between atoms: _368  and  _369
REMARK  145  A    between atoms: _368  and  _371
REMARK  146  A    between atoms: _371  and  _372
REMARK  147  A    between atoms: _372  and  _373
REMARK  148  A    between atoms: _373  and  _374
REMARK  149  A    between atoms: _374  and  _375
REMARK  150  A    between atoms: _379  and  _381
REMARK  151  A    between atoms: _381  and  _382
REMARK  152  A    between atoms: _381  and  _384
REMARK  153  A    between atoms: _384  and  _385
REMARK  154  A    between atoms: _388  and  _390
REMARK  155  A    between atoms: _390  and  _391
REMARK  156  A    between atoms: _390  and  _393
REMARK  157  A    between atoms: _393  and  _394
REMARK  158  A    between atoms: _399  and  _401
REMARK  159  A    between atoms: _401  and  _402
REMARK  160  A    between atoms: _404  and  _406
REMARK  161  A    between atoms: _406  and  _407
REMARK  162  A    between atoms: _406  and  _409
REMARK  163  A    between atoms: _409  and  _410
REMARK  164  A    between atoms: _410  and  _411
REMARK  165  A    between atoms: _411  and  _412
REMARK  166  A    between atoms: _412  and  _413
REMARK  167  A    between atoms: _417  and  _419
REMARK  168  A    between atoms: _419  and  _420
REMARK  169  A    between atoms: _419  and  _422
REMARK  170  A    between atoms: _422  and  _423
REMARK  171  A    between atoms: _423  and  _424
REMARK  172  A    between atoms: _424  and  _425
REMARK  173  A    between atoms: _434  and  _436
REMARK  174  A    between atoms: _436  and  _437
REMARK  175  A    between atoms: _436  and  _439
REMARK  176  A    between atoms: _439  and  _440
REMARK  177  A    between atoms: _445  and  _447
REMARK  178  A    between atoms: _447  and  _448
REMARK  179  A    between atoms: _447  and  _450
REMARK  180  A    between atoms: _450  and  _451
REMARK  181  A    between atoms: _456  and  _457
REMARK  182  A    between atoms: _459  and  _461
REMARK  183  A    between atoms: _461  and  _462
REMARK  184  A    between atoms: _461  and  _464
REMARK  185  A    between atoms: _464  and  _465
REMARK  186  A    between atoms: _465  and  _466
REMARK  187  A    between atoms: _466  and  _467
REMARK  188  A    between atoms: _467  and  _468
REMARK  189  A    between atoms: _472  and  _474
REMARK  190  A    between atoms: _474  and  _475
REMARK  191  A    between atoms: _474  and  _477
REMARK  192  A    between atoms: _477  and  _478
REMARK  193  A    between atoms: _483  and  _484
REMARK  194  A    between atoms: _486  and  _488
REMARK  195  A    between atoms: _488  and  _489
REMARK  196  A    between atoms: _488  and  _491
REMARK  197  A    between atoms: _491  and  _492
REMARK  198  A    between atoms: _494  and  _496
REMARK  199  A    between atoms: _496  and  _497
REMARK  200  A    between atoms: _496  and  _499
REMARK  201  A    between atoms: _499  and  _500
REMARK  202  A    between atoms: _503  and  _505
REMARK  203  A    between atoms: _505  and  _506
REMARK  204  A    between atoms: _505  and  _508
REMARK  205  A    between atoms: _508  and  _509
REMARK  206  A    between atoms: _509  and  _510
REMARK  207  A    between atoms: _513  and  _515
REMARK  208  A    between atoms: _515  and  _516
REMARK  209  A    between atoms: _519  and  _521
REMARK  210  A    between atoms: _521  and  _522
REMARK  211  A    between atoms: _521  and  _524
REMARK  212  A    between atoms: _524  and  _525
REMARK  213  A    between atoms: _527  and  _529
REMARK  214  A    between atoms: _529  and  _530
REMARK  215  A    between atoms: _532  and  _534
REMARK  216  A    between atoms: _534  and  _535
REMARK  217  A    between atoms: _534  and  _537
REMARK  218  A    between atoms: _537  and  _538
REMARK  219  A    between atoms: _541  and  _543
REMARK  220  A    between atoms: _543  and  _544
REMARK  221  A    between atoms: _546  and  _548
REMARK  222  A    between atoms: _548  and  _549
REMARK  223  A    between atoms: _548  and  _551
REMARK  224  A    between atoms: _551  and  _552
REMARK  225  A    between atoms: _557  and  _559
REMARK  226  A    between atoms: _559  and  _560
REMARK  227  A    between atoms: _559  and  _562
REMARK  228  A    between atoms: _562  and  _563
REMARK  229  A    between atoms: _563  and  _564
REMARK  230  A    between atoms: _571  and  _572
REMARK  231  A    between atoms: _572  and  _588
REMARK  232  A    between atoms: _573  and  _575
REMARK  233  A    between atoms: _575  and  _576
REMARK  234  A    between atoms: _576  and  _577
REMARK  235  A    between atoms: _581  and  _583
REMARK  236  A    between atoms: _583  and  _584
REMARK  237  A    between atoms: _583  and  _591
REMARK  238  A    between atoms: _584  and  _585
REMARK  239  A    between atoms: _585  and  _586
REMARK  240  A    between atoms: _586  and  _587
REMARK  241  A    between atoms: _587  and  _588
REMARK  242  A    between atoms: _593  and  _595
REMARK  243  A    between atoms: _595  and  _596
REMARK  244  A    between atoms: _595  and  _598
REMARK  245  A    between atoms: _598  and  _599
REMARK  246  A    between atoms: _602  and  _604
REMARK  247  A    between atoms: _604  and  _605
REMARK  248  A    between atoms: _607  and  _609
REMARK  249  A    between atoms: _609  and  _610
REMARK  250  A    between atoms: _613  and  _615
REMARK  251  A    between atoms: _615  and  _616
REMARK  252  A    between atoms: _615  and  _618
REMARK  253  A    between atoms: _618  and  _619
REMARK  254  A    between atoms: _619  and  _620
REMARK  255  A    between atoms: _620  and  _621
REMARK  256  A    between atoms: _630  and  _632
REMARK  257  A    between atoms: _632  and  _633
REMARK  258  A    between atoms: _632  and  _635
REMARK  259  A    between atoms: _635  and  _636
REMARK  260  A    between atoms: _641  and  _642
REMARK                            x       y       z     vdW  Elec       q    Type
REMARK                         _______ _______ _______ _____ _____    ______ ____
ROOT
ATOM      1  C   GLY A   5      28.587  19.771  34.342  0.00  0.00    +0.243 C 
ATOM      2  O   GLY A   5      28.237  18.839  35.064  0.00  0.00    -0.273 OA
ATOM      3  N   ARG A   6      27.920  20.123  33.243  0.00  0.00    -0.297 N 
ATOM      4  H   ARG A   6      28.244  20.948  32.699  0.00  0.00    +0.150 HD
ENDROOT
BRANCH   3   5
ATOM      5  CA  ARG A   6      26.736  19.378  32.776  0.00  0.00    +0.149 C 
BRANCH   5   6
ATOM      6  C   ARG A   6      27.154  18.012  32.232  0.00  0.00    +0.241 C 
ATOM      7  O   ARG A   6      26.437  17.028  32.414  0.00  0.00    -0.273 OA
ATOM      8  N   LEU A   7      28.321  17.948  31.589  0.00  0.00    -0.297 N 
ATOM      9  H   LEU A   7      28.867  18.819  31.431  0.00  0.00    +0.150 HD
BRANCH   8  10
ATOM     10  CA  LEU A   7      28.847  16.666  31.100  0.00  0.00    +0.149 C 
BRANCH  10  11
ATOM     11  C   LEU A   7      28.982  15.658  32.235  0.00  0.00    +0.241 C 
ATOM     12  N   ALA A   8      29.519  16.107  33.370  0.00  0.00    -0.298 N 
ATOM     13  H   ALA A   8      29.834  17.097  33.421  0.00  0.00    +0.150 HD
ATOM     14  O   LEU A   7      28.593  14.503  32.087  0.00  0.00    -0.273 OA
BRANCH  12  15
ATOM     15  CA  ALA A   8      29.678  15.255  34.542  0.00  0.00    +0.137 C 
ATOM     16  CB  ALA A   8      30.401  16.004  35.665  0.00  0.00    +0.030 C 
BRANCH  15  17
ATOM     17  C   ALA A   8      28.328  14.715  35.018  0.00  0.00    +0.227 C 
ATOM     18  O   ALA A   8      28.229  13.555  35.375  0.00  0.00    -0.286 OA
ENDBRANCH  15  17
ENDBRANCH  12  15
ENDBRANCH  10  11
BRANCH  10  19
ATOM     19  CB  LEU A   7      30.189  16.840  30.383  0.00  0.00    +0.029 C 
BRANCH  19  20
ATOM     20  CG  LEU A   7      30.659  15.587  29.632  0.00  0.00    +0.002 C 
ATOM     21  CD2 LEU A   7      32.155  15.614  29.331  0.00  0.00    +0.000 C 
ATOM     22  CD1 LEU A   7      29.845  15.363  28.353  0.00  0.00    +0.000 C 
ENDBRANCH  19  20
ENDBRANCH  10  19
ENDBRANCH   8  10
ENDBRANCH   5   6
BRANCH   5  23
ATOM     23  CB  ARG A   6      25.975  20.159  31.692  0.00  0.00    +0.033 C 
BRANCH  23  24
ATOM     24  CG  ARG A   6      24.455  19.902  31.553  0.00  0.00    +0.045 C 
BRANCH  24  25
ATOM     25  CD  ARG A   6      23.955  18.468  31.868  0.00  0.00    +0.174 C 
BRANCH  25  26
ATOM     26  NE  ARG A   6      23.131  18.478  33.060  0.00  0.00    -0.265 N 
ATOM     27  HE  ARG A   6      23.087  19.372  33.590  0.00  0.00    +0.259 HD
ATOM     28  CZ  ARG A   6      22.425  17.459  33.545  0.00  0.00    +0.342 C 
ATOM     29  NH2 ARG A   6      21.730  17.657  34.653  0.00  0.00    -0.292 N 
ATOM     30 HH21 ARG A   6      21.746  18.587  35.118  0.00  0.00    +0.255 HD
ATOM     31 HH22 ARG A   6      21.167  16.882  35.059  0.00  0.00    +0.255 HD
ATOM     32  NH1 ARG A   6      22.406  16.258  32.964  0.00  0.00    -0.292 N 
ATOM     33 HH11 ARG A   6      21.840  15.489  33.377  0.00  0.00    +0.255 HD
ATOM     34 HH12 ARG A   6      22.957  16.090  32.098  0.00  0.00    +0.255 HD
ENDBRANCH  25  26
ENDBRANCH  24  25
ENDBRANCH  23  24
ENDBRANCH   5  23
ENDBRANCH   3   5
BRANCH   1  35
ATOM     35  CA  GLY A   5      29.809  20.600  34.709  0.00  0.00    +0.176 C 
BRANCH  35  37
ATOM     36  C   LEU A   4      31.338  20.203  32.857  0.00  0.00    +0.241 C 
ATOM     37  N   GLY A   5      30.620  21.058  33.581  0.00  0.00    -0.295 N 
ATOM     38  H   GLY A   5      30.636  22.070  33.341  0.00  0.00    +0.150 HD
ATOM     39  O   LEU A   4      31.418  18.996  33.129  0.00  0.00    -0.273 OA
BRANCH  36  40
ATOM     40  CA  LEU A   4      32.062  20.784  31.628  0.00  0.00    +0.149 C 
BRANCH  40  42
ATOM     41  C   GLY A   3      30.111  21.352  30.262  0.00  0.00    +0.243 C 
ATOM     42  N   LEU A   4      31.209  21.731  30.911  0.00  0.00    -0.297 N 
ATOM     43  H   LEU A   4      31.470  22.738  30.908  0.00  0.00    +0.150 HD
ATOM     44  O   GLY A   3      29.713  20.187  30.240  0.00  0.00    -0.273 OA
BRANCH  41  45
ATOM     45  CA  GLY A   3      29.356  22.443  29.526  0.00  0.00    +0.176 C 
BRANCH  45  48
ATOM     46  C   GLY A   2      28.641  23.849  31.402  0.00  0.00    +0.243 C 
ATOM     47  O   GLY A   2      28.327  22.887  32.107  0.00  0.00    -0.273 OA
ATOM     48  N   GLY A   3      29.240  23.729  30.221  0.00  0.00    -0.295 N 
ATOM     49  H   GLY A   3      29.641  24.578  29.774  0.00  0.00    +0.150 HD
BRANCH  46  50
ATOM     50  CA  GLY A   2      28.386  25.260  31.879  0.00  0.00    +0.176 C 
BRANCH  50  53
ATOM     51  C   ASN A   1      28.676  26.593  33.900  0.00  0.00    +0.239 C 
ATOM     52  O   ASN A   1      27.905  27.467  33.512  0.00  0.00    -0.274 OA
ATOM     53  N   GLY A   2      28.916  25.481  33.217  0.00  0.00    -0.296 N 
ATOM     54  H   GLY A   2      29.503  24.741  33.653  0.00  0.00    +0.150 HD
BRANCH  51  55
ATOM     55  CA  ASN A   1      29.430  26.749  35.218  0.00  0.00    +0.154 C 
BRANCH  55  56
ATOM     56  N   ASN A   1      29.479  25.522  36.013  0.00  0.00    -0.238 NA
ATOM     57  H   ASN A   1      30.230  24.828  35.824  0.00  0.00    +0.142 HD
ENDBRANCH  55  56
BRANCH  55  58
ATOM     58  CB  ASN A   1      30.850  27.255  34.944  0.00  0.00    +0.111 C 
BRANCH  58  59
ATOM     59  CG  ASN A   1      31.435  28.010  36.119  0.00  0.00    +0.221 C 
ATOM     60  ND2 ASN A   1      32.390  27.395  36.807  0.00  0.00    -0.329 N 
ATOM     61 HD21 ASN A   1      32.828  27.866  37.624  0.00  0.00    +0.145 HD
ATOM     62 HD22 ASN A   1      32.700  26.442  36.529  0.00  0.00    +0.145 HD
ATOM     63  OD1 ASN A   1      31.031  29.136  36.404  0.00  0.00    -0.275 OA
ENDBRANCH  58  59
ENDBRANCH  55  58
ENDBRANCH  51  55
ENDBRANCH  50  53
ENDBRANCH  46  50
ENDBRANCH  45  48
ENDBRANCH  41  45
ENDBRANCH  40  42
BRANCH  40  64
ATOM     64  CB  LEU A   4      33.402  21.459  31.993  0.00  0.00    +0.029 C 
BRANCH  64  65
ATOM     65  CG  LEU A   4      34.390  20.847  32.995  0.00  0.00    +0.002 C 
ATOM     66  CD2 LEU A   4      33.971  21.143  34.431  0.00  0.00    +0.000 C 
ATOM     67  CD1 LEU A   4      35.801  21.373  32.737  0.00  0.00    +0.000 C 
ENDBRANCH  64  65
ENDBRANCH  40  64
ENDBRANCH  36  40
ENDBRANCH  35  37
ENDBRANCH   1  35
TORSDOF 26
REMARK  Name = ../refined-set-2016/3g2l/3g2l_pocket.pdb
REMARK  260 active torsions:
REMARK  status: ('A' for Active; 'I' for Inactive)
REMARK    1  A    between atoms: _1  and  _3
REMARK    2  A    between atoms: _3  and  _4
REMARK    3  A    between atoms: _3  and  _6
REMARK    4  A    between atoms: _6  and  _7
REMARK    5  A    between atoms: _12  and  _13
REMARK    6  A    between atoms: _15  and  _17
REMARK    7  A    between atoms: _17  and  _18
REMARK    8  A    between atoms: _17  and  _20
REMARK    9  A    between atoms: _20  and  _21
REMARK   10  A    between atoms: _21  and  _22
REMARK   11  A    between atoms: _25  and  _27
REMARK   12  A    between atoms: _27  and  _28
REMARK   13  A    between atoms: _27  and  _30
REMARK   14  A    between atoms: _30  and  _31
REMARK   15  A    between atoms: _36  and  _38
REMARK   16  A    between atoms: _38  and  _39
REMARK   17  A    between atoms: _41  and  _43
REMARK   18  A    between atoms: _43  and  _44
REMARK   19  A    between atoms: _46  and  _48
REMARK   20  A    between atoms: _48  and  _49
REMARK   21  A    between atoms: _48  and  _51
REMARK   22  A    between atoms: _51  and  _52
REMARK   23  A    between atoms: _55  and  _57
REMARK   24  A    between atoms: _57  and  _58
REMARK   25  A    between atoms: _60  and  _62
REMARK   26  A    between atoms: _62  and  _63
REMARK   27  A    between atoms: _62  and  _65
REMARK   28  A    between atoms: _65  and  _66
REMARK   29  A    between atoms: _66  and  _67
REMARK   30  A    between atoms: _67  and  _68
REMARK   31  A    between atoms: _77  and  _79
REMARK   32  A    between atoms: _79  and  _80
REMARK   33  A    between atoms: _79  and  _82
REMARK   34  A    between atoms: _82  and  _83
REMARK   35  A    between atoms: _86  and  _88
REMARK   36  A    between atoms: _88  and  _89
REMARK   37  A    between atoms: _92  and  _94
REMARK   38  A    between atoms: _94  and  _95
REMARK   39  A    between atoms: _94  and  _97
REMARK   40  A    between atoms: _97  and  _98
REMARK   41  A    between atoms: _104  and  _106
REMARK   42  A    between atoms: _106  and  _107
REMARK   43  A    between atoms: _106  and  _109
REMARK   44  A    between atoms: _109  and  _110
REMARK   45  A    between atoms: _115  and  _117
REMARK   46  A    between atoms: _117  and  _118
REMARK   47  A    between atoms: _117  and  _120
REMARK   48  A    between atoms: _120  and  _121
REMARK   49  A    between atoms: _124  and  _126
REMARK   50  A    between atoms: _126  and  _127
REMARK   51  A    between atoms: _126  and  _129
REMARK   52  A    between atoms: _129  and  _130
REMARK   53  A    between atoms: _135  and  _137
REMARK   54  A    between atoms: _137  and  _138
REMARK   55  A    between atoms: _137  and  _140
REMARK   56  A    between atoms: _140  and  _141
REMARK   57  A    between atoms: _147  and  _149
REMARK   58  A    between atoms: _149  and  _150
REMARK   59  A    between atoms: _149  and  _152
REMARK   60  A    between atoms: _152  and  _153
REMARK   61  A    between atoms: _159  and  _161
REMARK   62  A    between atoms: _161  and  _162
REMARK   63  A    between atoms: _161  and  _164
REMARK   64  A    between atoms: _164  and  _165
REMARK   65  A    between atoms: _165  and  _166
REMARK   66  A    between atoms: _169  and  _171
REMARK   67  A    between atoms: _171  and  _172
REMARK   68  A    between atoms: _171  and  _174
REMARK   69  A    between atoms: _174  and  _175
REMARK   70  A    between atoms: _175  and  _176
REMARK   71  A    between atoms: _176  and  _177
REMARK   72  A    between atoms: _186  and  _188
REMARK   73  A    between atoms: _188  and  _189
REMARK   74  A    between atoms: _188  and  _191
REMARK   75  A    between atoms: _191  and  _192
REMARK   76  A    between atoms: _197  and  _199
REMARK   77  A    between atoms: _199  and  _200
REMARK   78  A    between atoms: _199  and  _202
REMARK   79  A    between atoms: _202  and  _203
REMARK   80  A    between atoms: _206  and  _208
REMARK   81  A    between atoms: _208  and  _209
REMARK   82  A    between atoms: _208  and  _211
REMARK   83  A    between atoms: _211  and  _212
REMARK   84  A    between atoms: _215  and  _217
REMARK   85  A    between atoms: _217  and  _218
REMARK   86  A    between atoms: _217  and  _220
REMARK   87  A    between atoms: _220  and  _221
REMARK   88  A    between atoms: _226  and  _228
REMARK   89  A    between atoms: _228  and  _229
REMARK   90  A    between atoms: _228  and  _231
REMARK   91  A    between atoms: _231  and  _232
REMARK   92  A    between atoms: _235  and  _237
REMARK   93  A    between atoms: _237  and  _238
REMARK   94  A    between atoms: _237  and  _240
REMARK   95  A    between atoms: _240  and  _241
REMARK   96  A    between atoms: _246  and  _248
REMARK   97  A    between atoms: _248  and  _249
REMARK   98  A    between atoms: _248  and  _251
REMARK   99  A    between atoms: _251  and  _252
REMARK  100  A    between atoms: _257  and  _259
REMARK  101  A    between atoms: _259  and  _260
REMARK  102  A    between atoms: _259  and  _262
REMARK  103  A    between atoms: _262  and  _263
REMARK  104  A    between atoms: _266  and  _268
REMARK  105  A    between atoms: _268  and  _269
REMARK  106  A    between atoms: _268  and  _271
REMARK  107  A    between atoms: _274  and  _276
REMARK  108  A    between atoms: _276  and  _277
REMARK  109  A    between atoms: _276  and  _279
REMARK  110  A    between atoms: _279  and  _280
REMARK  111  A    between atoms: _284  and  _285
REMARK  112  A    between atoms: _290  and  _292
REMARK  113  A    between atoms: _292  and  _293
REMARK  114  A    between atoms: _292  and  _295
REMARK  115  A    between atoms: _295  and  _296
REMARK  116  A    between atoms: _296  and  _297
REMARK  117  A    between atoms: _300  and  _302
REMARK  118  A    between atoms: _302  and  _303
REMARK  119  A    between atoms: _306  and  _308
REMARK  120  A    between atoms: _308  and  _309
REMARK  121  A    between atoms: _308  and  _311
REMARK  122  A    between atoms: _311  and  _312
REMARK  123  A    between atoms: _315  and  _317
REMARK  124  A    between atoms: _317  and  _318
REMARK  125  A    between atoms: _317  and  _320
REMARK  126  A    between atoms: _320  and  _321
REMARK  127  A    between atoms: _321  and  _322
REMARK  128  A    between atoms: _325  and  _327
REMARK  129  A    between atoms: _327  and  _328
REMARK  130  A    between atoms: _327  and  _330
REMARK  131  A    between atoms: _330  and  _331
REMARK  132  A    between atoms: _336  and  _338
REMARK  133  A    between atoms: _338  and  _339
REMARK  134  A    between atoms: _341  and  _343
REMARK  135  A    between atoms: _343  and  _344
REMARK  136  A    between atoms: _343  and  _346
REMARK  137  A    between atoms: _349  and  _351
REMARK  138  A    between atoms: _351  and  _352
REMARK  139  A    between atoms: _355  and  _357
REMARK  140  A    between atoms: _357  and  _358
REMARK  141  A    between atoms: _357  and  _360
REMARK  142  A    between atoms: _360  and  _361
REMARK  143  A    between atoms: _366  and  _368
REMARK  144  A    between atoms: _368  and  _369
REMARK  145  A    between atoms: _368  and  _371
REMARK  146  A    between atoms: _371  and  _372
REMARK  147  A    between atoms: _372  and  _373
REMARK  148  A    between atoms: _373  and  _374
REMARK  149  A    between atoms: _374  and  _375
REMARK  150  A    between atoms: _379  and  _381
REMARK  151  A    between atoms: _381  and  _382
REMARK  152  A    between atoms: _381  and  _384
REMARK  153  A    between atoms: _384  and  _385
REMARK  154  A    between atoms: _388  and  _390
REMARK  155  A    between atoms: _390  and  _391
REMARK  156  A    between atoms: _390  and  _393
REMARK  157  A    between atoms: _393  and  _394
REMARK  158  A    between atoms: _399  and  _401
REMARK  159  A    between atoms: _401  and  _402
REMARK  160  A    between atoms: _404  and  _406
REMARK  161  A    between atoms: _406  and  _407
REMARK  162  A    between atoms: _406  and  _409
REMARK  163  A    between atoms: _409  and  _410
REMARK  164  A    between atoms: _410  and  _411
REMARK  165  A    between atoms: _411  and  _412
REMARK  166  A    between atoms: _412  and  _413
REMARK  167  A    between atoms: _417  and  _419
REMARK  168  A    between atoms: _419  and  _420
REMARK  169  A    between atoms: _419  and  _422
REMARK  170  A    between atoms: _422  and  _423
REMARK  171  A    between atoms: _423  and  _424
REMARK  172  A    between atoms: _424  and  _425
REMARK  173  A    between atoms: _434  and  _436
REMARK  174  A    between atoms: _436  and  _437
REMARK  175  A    between atoms: _436  and  _439
REMARK  176  A    between atoms: _439  and  _440
REMARK  177  A    between atoms: _445  and  _447
REMARK  178  A    between atoms: _447  and  _448
REMARK  179  A    between atoms: _447  and  _450
REMARK  180  A    between atoms: _450  and  _451
REMARK  181  A    between atoms: _456  and  _457
REMARK  182  A    between atoms: _459  and  _461
REMARK  183  A    between atoms: _461  and  _462
REMARK  184  A    between atoms: _461  and  _464
REMARK  185  A    between atoms: _464  and  _465
REMARK  186  A    between atoms: _465  and  _466
REMARK  187  A    between atoms: _466  and  _467
REMARK  188  A    between atoms: _467  and  _468
REMARK  189  A    between atoms: _472  and  _474
REMARK  190  A    between atoms: _474  and  _475
REMARK  191  A    between atoms: _474  and  _477
REMARK  192  A    between atoms: _477  and  _478
REMARK  193  A    between atoms: _483  and  _484
REMARK  194  A    between atoms: _486  and  _488
REMARK  195  A    between atoms: _488  and  _489
REMARK  196  A    between atoms: _488  and  _491
REMARK  197  A    between atoms: _491  and  _492
REMARK  198  A    between atoms: _494  and  _496
REMARK  199  A    between atoms: _496  and  _497
REMARK  200  A    between atoms: _496  and  _499
REMARK  201  A    between atoms: _499  and  _500
REMARK  202  A    between atoms: _503  and  _505
REMARK  203  A    between atoms: _505  and  _506
REMARK  204  A    between atoms: _505  and  _508
REMARK  205  A    between atoms: _508  and  _509
REMARK  206  A    between atoms: _509  and  _510
REMARK  207  A    between atoms: _513  and  _515
REMARK  208  A    between atoms: _515  and  _516
REMARK  209  A    between atoms: _519  and  _521
REMARK  210  A    between atoms: _521  and  _522
REMARK  211  A    between atoms: _521  and  _524
REMARK  212  A    between atoms: _524  and  _525
REMARK  213  A    between atoms: _527  and  _529
REMARK  214  A    between atoms: _529  and  _530
REMARK  215  A    between atoms: _532  and  _534
REMARK  216  A    between atoms: _534  and  _535
REMARK  217  A    between atoms: _534  and  _537
REMARK  218  A    between atoms: _537  and  _538
REMARK  219  A    between atoms: _541  and  _543
REMARK  220  A    between atoms: _543  and  _544
REMARK  221  A    between atoms: _546  and  _548
REMARK  222  A    between atoms: _548  and  _549
REMARK  223  A    between atoms: _548  and  _551
REMARK  224  A    between atoms: _551  and  _552
REMARK  225  A    between atoms: _557  and  _559
REMARK  226  A    between atoms: _559  and  _560
REMARK  227  A    between atoms: _559  and  _562
REMARK  228  A    between atoms: _562  and  _563
REMARK  229  A    between atoms: _563  and  _564
REMARK  230  A    between atoms: _571  and  _572
REMARK  231  A    between atoms: _572  and  _588
REMARK  232  A    between atoms: _573  and  _575
REMARK  233  A    between atoms: _575  and  _576
REMARK  234  A    between atoms: _576  and  _577
REMARK  235  A    between atoms: _581  and  _583
REMARK  236  A    between atoms: _583  and  _584
REMARK  237  A    between atoms: _583  and  _591
REMARK  238  A    between atoms: _584  and  _585
REMARK  239  A    between atoms: _585  and  _586
REMARK  240  A    between atoms: _586  and  _587
REMARK  241  A    between atoms: _587  and  _588
REMARK  242  A    between atoms: _593  and  _595
REMARK  243  A    between atoms: _595  and  _596
REMARK  244  A    between atoms: _595  and  _598
REMARK  245  A    between atoms: _598  and  _599
REMARK  246  A    between atoms: _602  and  _604
REMARK  247  A    between atoms: _604  and  _605
REMARK  248  A    between atoms: _607  and  _609
REMARK  249  A    between atoms: _609  and  _610
REMARK  250  A    between atoms: _613  and  _615
REMARK  251  A    between atoms: _615  and  _616
REMARK  252  A    between atoms: _615  and  _618
REMARK  253  A    between atoms: _618  and  _619
REMARK  254  A    between atoms: _619  and  _620
REMARK  255  A    between atoms: _620  and  _621
REMARK  256  A    between atoms: _630  and  _632
REMARK  257  A    between atoms: _632  and  _633
REMARK  258  A    between atoms: _632  and  _635
REMARK  259  A    between atoms: _635  and  _636
REMARK  260  A    between atoms: _641  and  _642
REMARK                            x       y       z     vdW  Elec       q    Type
REMARK                         _______ _______ _______ _____ _____    ______ ____
ROOT
ATOM      1  CB  PHE A   1      29.223  11.422  32.868  0.00  0.00    +0.051 C 
ENDROOT
BRANCH   1   2
ATOM      2  CG  PHE A   1      29.912  11.628  31.546  0.00  0.00    -0.020 A 
ATOM      3  CD2 PHE A   1      31.299  11.742  31.485  0.00  0.00    -0.004 A 
ATOM      4  CE2 PHE A   1      31.949  11.929  30.262  0.00  0.00    -0.000 A 
ATOM      5  CZ  PHE A   1      31.207  12.012  29.087  0.00  0.00    -0.000 A 
ATOM      6  CE1 PHE A   1      29.820  11.907  29.133  0.00  0.00    -0.000 A 
ATOM      7  CD1 PHE A   1      29.180  11.721  30.360  0.00  0.00    -0.004 A 
ENDBRANCH   1   2
BRANCH   1   8
ATOM      8  CA  PHE A   1      27.744  11.044  32.745  0.00  0.00    +0.137 C 
BRANCH   8   9
ATOM      9  N   PHE A   1      26.915  12.237  32.599  0.00  0.00    -0.239 NA
ATOM     10  H   PHE A   1      27.340  13.172  32.762  0.00  0.00    +0.142 HD
ENDBRANCH   8   9
BRANCH   8  11
ATOM     11  C   PHE A   1      27.306  10.158  33.911  0.00  0.00    +0.224 C 
ATOM     12  O   PHE A   1      27.236   8.943  33.760  0.00  0.00    -0.287 OA
ENDBRANCH   8  11
ENDBRANCH   1   8
TORSDOF 4
REMARK  Name = ../refined-set-2016/3g2l/3g2l_pocket.pdb
REMARK  260 active torsions:
REMARK  status: ('A' for Active; 'I' for Inactive)
REMARK    1  A    between atoms: _1  and  _3
REMARK    2  A    between atoms: _3  and  _4
REMARK    3  A    between atoms: _3  and  _6
REMARK    4  A    between atoms: _6  and  _7
REMARK    5  A    between atoms: _12  and  _13
REMARK    6  A    between atoms: _15  and  _17
REMARK    7  A    between atoms: _17  and  _18
REMARK    8  A    between atoms: _17  and  _20
REMARK    9  A    between atoms: _20  and  _21
REMARK   10  A    between atoms: _21  and  _22
REMARK   11  A    between atoms: _25  and  _27
REMARK   12  A    between atoms: _27  and  _28
REMARK   13  A    between atoms: _27  and  _30
REMARK   14  A    between atoms: _30  and  _31
REMARK   15  A    between atoms: _36  and  _38
REMARK   16  A    between atoms: _38  and  _39
REMARK   17  A    between atoms: _41  and  _43
REMARK   18  A    between atoms: _43  and  _44
REMARK   19  A    between atoms: _46  and  _48
REMARK   20  A    between atoms: _48  and  _49
REMARK   21  A    between atoms: _48  and  _51
REMARK   22  A    between atoms: _51  and  _52
REMARK   23  A    between atoms: _55  and  _57
REMARK   24  A    between atoms: _57  and  _58
REMARK   25  A    between atoms: _60  and  _62
REMARK   26  A    between atoms: _62  and  _63
REMARK   27  A    between atoms: _62  and  _65
REMARK   28  A    between atoms: _65  and  _66
REMARK   29  A    between atoms: _66  and  _67
REMARK   30  A    between atoms: _67  and  _68
REMARK   31  A    between atoms: _77  and  _79
REMARK   32  A    between atoms: _79  and  _80
REMARK   33  A    between atoms: _79  and  _82
REMARK   34  A    between atoms: _82  and  _83
REMARK   35  A    between atoms: _86  and  _88
REMARK   36  A    between atoms: _88  and  _89
REMARK   37  A    between atoms: _92  and  _94
REMARK   38  A    between atoms: _94  and  _95
REMARK   39  A    between atoms: _94  and  _97
REMARK   40  A    between atoms: _97  and  _98
REMARK   41  A    between atoms: _104  and  _106
REMARK   42  A    between atoms: _106  and  _107
REMARK   43  A    between atoms: _106  and  _109
REMARK   44  A    between atoms: _109  and  _110
REMARK   45  A    between atoms: _115  and  _117
REMARK   46  A    between atoms: _117  and  _118
REMARK   47  A    between atoms: _117  and  _120
REMARK   48  A    between atoms: _120  and  _121
REMARK   49  A    between atoms: _124  and  _126
REMARK   50  A    between atoms: _126  and  _127
REMARK   51  A    between atoms: _126  and  _129
REMARK   52  A    between atoms: _129  and  _130
REMARK   53  A    between atoms: _135  and  _137
REMARK   54  A    between atoms: _137  and  _138
REMARK   55  A    between atoms: _137  and  _140
REMARK   56  A    between atoms: _140  and  _141
REMARK   57  A    between atoms: _147  and  _149
REMARK   58  A    between atoms: _149  and  _150
REMARK   59  A    between atoms: _149  and  _152
REMARK   60  A    between atoms: _152  and  _153
REMARK   61  A    between atoms: _159  and  _161
REMARK   62  A    between atoms: _161  and  _162
REMARK   63  A    between atoms: _161  and  _164
REMARK   64  A    between atoms: _164  and  _165
REMARK   65  A    between atoms: _165  and  _166
REMARK   66  A    between atoms: _169  and  _171
REMARK   67  A    between atoms: _171  and  _172
REMARK   68  A    between atoms: _171  and  _174
REMARK   69  A    between atoms: _174  and  _175
REMARK   70  A    between atoms: _175  and  _176
REMARK   71  A    between atoms: _176  and  _177
REMARK   72  A    between atoms: _186  and  _188
REMARK   73  A    between atoms: _188  and  _189
REMARK   74  A    between atoms: _188  and  _191
REMARK   75  A    between atoms: _191  and  _192
REMARK   76  A    between atoms: _197  and  _199
REMARK   77  A    between atoms: _199  and  _200
REMARK   78  A    between atoms: _199  and  _202
REMARK   79  A    between atoms: _202  and  _203
REMARK   80  A    between atoms: _206  and  _208
REMARK   81  A    between atoms: _208  and  _209
REMARK   82  A    between atoms: _208  and  _211
REMARK   83  A    between atoms: _211  and  _212
REMARK   84  A    between atoms: _215  and  _217
REMARK   85  A    between atoms: _217  and  _218
REMARK   86  A    between atoms: _217  and  _220
REMARK   87  A    between atoms: _220  and  _221
REMARK   88  A    between atoms: _226  and  _228
REMARK   89  A    between atoms: _228  and  _229
REMARK   90  A    between atoms: _228  and  _231
REMARK   91  A    between atoms: _231  and  _232
REMARK   92  A    between atoms: _235  and  _237
REMARK   93  A    between atoms: _237  and  _238
REMARK   94  A    between atoms: _237  and  _240
REMARK   95  A    between atoms: _240  and  _241
REMARK   96  A    between atoms: _246  and  _248
REMARK   97  A    between atoms: _248  and  _249
REMARK   98  A    between atoms: _248  and  _251
REMARK   99  A    between atoms: _251  and  _252
REMARK  100  A    between atoms: _257  and  _259
REMARK  101  A    between atoms: _259  and  _260
REMARK  102  A    between atoms: _259  and  _262
REMARK  103  A    between atoms: _262  and  _263
REMARK  104  A    between atoms: _266  and  _268
REMARK  105  A    between atoms: _268  and  _269
REMARK  106  A    between atoms: _268  and  _271
REMARK  107  A    between atoms: _274  and  _276
REMARK  108  A    between atoms: _276  and  _277
REMARK  109  A    between atoms: _276  and  _279
REMARK  110  A    between atoms: _279  and  _280
REMARK  111  A    between atoms: _284  and  _285
REMARK  112  A    between atoms: _290  and  _292
REMARK  113  A    between atoms: _292  and  _293
REMARK  114  A    between atoms: _292  and  _295
REMARK  115  A    between atoms: _295  and  _296
REMARK  116  A    between atoms: _296  and  _297
REMARK  117  A    between atoms: _300  and  _302
REMARK  118  A    between atoms: _302  and  _303
REMARK  119  A    between atoms: _306  and  _308
REMARK  120  A    between atoms: _308  and  _309
REMARK  121  A    between atoms: _308  and  _311
REMARK  122  A    between atoms: _311  and  _312
REMARK  123  A    between atoms: _315  and  _317
REMARK  124  A    between atoms: _317  and  _318
REMARK  125  A    between atoms: _317  and  _320
REMARK  126  A    between atoms: _320  and  _321
REMARK  127  A    between atoms: _321  and  _322
REMARK  128  A    between atoms: _325  and  _327
REMARK  129  A    between atoms: _327  and  _328
REMARK  130  A    between atoms: _327  and  _330
REMARK  131  A    between atoms: _330  and  _331
REMARK  132  A    between atoms: _336  and  _338
REMARK  133  A    between atoms: _338  and  _339
REMARK  134  A    between atoms: _341  and  _343
REMARK  135  A    between atoms: _343  and  _344
REMARK  136  A    between atoms: _343  and  _346
REMARK  137  A    between atoms: _349  and  _351
REMARK  138  A    between atoms: _351  and  _352
REMARK  139  A    between atoms: _355  and  _357
REMARK  140  A    between atoms: _357  and  _358
REMARK  141  A    between atoms: _357  and  _360
REMARK  142  A    between atoms: _360  and  _361
REMARK  143  A    between atoms: _366  and  _368
REMARK  144  A    between atoms: _368  and  _369
REMARK  145  A    between atoms: _368  and  _371
REMARK  146  A    between atoms: _371  and  _372
REMARK  147  A    between atoms: _372  and  _373
REMARK  148  A    between atoms: _373  and  _374
REMARK  149  A    between atoms: _374  and  _375
REMARK  150  A    between atoms: _379  and  _381
REMARK  151  A    between atoms: _381  and  _382
REMARK  152  A    between atoms: _381  and  _384
REMARK  153  A    between atoms: _384  and  _385
REMARK  154  A    between atoms: _388  and  _390
REMARK  155  A    between atoms: _390  and  _391
REMARK  156  A    between atoms: _390  and  _393
REMARK  157  A    between atoms: _393  and  _394
REMARK  158  A    between atoms: _399  and  _401
REMARK  159  A    between atoms: _401  and  _402
REMARK  160  A    between atoms: _404  and  _406
REMARK  161  A    between atoms: _406  and  _407
REMARK  162  A    between atoms: _406  and  _409
REMARK  163  A    between atoms: _409  and  _410
REMARK  164  A    between atoms: _410  and  _411
REMARK  165  A    between atoms: _411  and  _412
REMARK  166  A    between atoms: _412  and  _413
REMARK  167  A    between atoms: _417  and  _419
REMARK  168  A    between atoms: _419  and  _420
REMARK  169  A    between atoms: _419  and  _422
REMARK  170  A    between atoms: _422  and  _423
REMARK  171  A    between atoms: _423  and  _424
REMARK  172  A    between atoms: _424  and  _425
REMARK  173  A    between atoms: _434  and  _436
REMARK  174  A    between atoms: _436  and  _437
REMARK  175  A    between atoms: _436  and  _439
REMARK  176  A    between atoms: _439  and  _440
REMARK  177  A    between atoms: _445  and  _447
REMARK  178  A    between atoms: _447  and  _448
REMARK  179  A    between atoms: _447  and  _450
REMARK  180  A    between atoms: _450  and  _451
REMARK  181  A    between atoms: _456  and  _457
REMARK  182  A    between atoms: _459  and  _461
REMARK  183  A    between atoms: _461  and  _462
REMARK  184  A    between atoms: _461  and  _464
REMARK  185  A    between atoms: _464  and  _465
REMARK  186  A    between atoms: _465  and  _466
REMARK  187  A    between atoms: _466  and  _467
REMARK  188  A    between atoms: _467  and  _468
REMARK  189  A    between atoms: _472  and  _474
REMARK  190  A    between atoms: _474  and  _475
REMARK  191  A    between atoms: _474  and  _477
REMARK  192  A    between atoms: _477  and  _478
REMARK  193  A    between atoms: _483  and  _484
REMARK  194  A    between atoms: _486  and  _488
REMARK  195  A    between atoms: _488  and  _489
REMARK  196  A    between atoms: _488  and  _491
REMARK  197  A    between atoms: _491  and  _492
REMARK  198  A    between atoms: _494  and  _496
REMARK  199  A    between atoms: _496  and  _497
REMARK  200  A    between atoms: _496  and  _499
REMARK  201  A    between atoms: _499  and  _500
REMARK  202  A    between atoms: _503  and  _505
REMARK  203  A    between atoms: _505  and  _506
REMARK  204  A    between atoms: _505  and  _508
REMARK  205  A    between atoms: _508  and  _509
REMARK  206  A    between atoms: _509  and  _510
REMARK  207  A    between atoms: _513  and  _515
REMARK  208  A    between atoms: _515  and  _516
REMARK  209  A    between atoms: _519  and  _521
REMARK  210  A    between atoms: _521  and  _522
REMARK  211  A    between atoms: _521  and  _524
REMARK  212  A    between atoms: _524  and  _525
REMARK  213  A    between atoms: _527  and  _529
REMARK  214  A    between atoms: _529  and  _530
REMARK  215  A    between atoms: _532  and  _534
REMARK  216  A    between atoms: _534  and  _535
REMARK  217  A    between atoms: _534  and  _537
REMARK  218  A    between atoms: _537  and  _538
REMARK  219  A    between atoms: _541  and  _543
REMARK  220  A    between atoms: _543  and  _544
REMARK  221  A    between atoms: _546  and  _548
REMARK  222  A    between atoms: _548  and  _549
REMARK  223  A    between atoms: _548  and  _551
REMARK  224  A    between atoms: _551  and  _552
REMARK  225  A    between atoms: _557  and  _559
REMARK  226  A    between atoms: _559  and  _560
REMARK  227  A    between atoms: _559  and  _562
REMARK  228  A    between atoms: _562  and  _563
REMARK  229  A    between atoms: _563  and  _564
REMARK  230  A    between atoms: _571  and  _572
REMARK  231  A    between atoms: _572  and  _588
REMARK  232  A    between atoms: _573  and  _575
REMARK  233  A    between atoms: _575  and  _576
REMARK  234  A    between atoms: _576  and  _577
REMARK  235  A    between atoms: _581  and  _583
REMARK  236  A    between atoms: _583  and  _584
REMARK  237  A    between atoms: _583  and  _591
REMARK  238  A    between atoms: _584  and  _585
REMARK  239  A    between atoms: _585  and  _586
REMARK  240  A    between atoms: _586  and  _587
REMARK  241  A    between atoms: _587  and  _588
REMARK  242  A    between atoms: _593  and  _595
REMARK  243  A    between atoms: _595  and  _596
REMARK  244  A    between atoms: _595  and  _598
REMARK  245  A    between atoms: _598  and  _599
REMARK  246  A    between atoms: _602  and  _604
REMARK  247  A    between atoms: _604  and  _605
REMARK  248  A    between atoms: _607  and  _609
REMARK  249  A    between atoms: _609  and  _610
REMARK  250  A    between atoms: _613  and  _615
REMARK  251  A    between atoms: _615  and  _616
REMARK  252  A    between atoms: _615  and  _618
REMARK  253  A    between atoms: _618  and  _619
REMARK  254  A    between atoms: _619  and  _620
REMARK  255  A    between atoms: _620  and  _621
REMARK  256  A    between atoms: _630  and  _632
REMARK  257  A    between atoms: _632  and  _633
REMARK  258  A    between atoms: _632  and  _635
REMARK  259  A    between atoms: _635  and  _636
REMARK  260  A    between atoms: _641  and  _642
REMARK                            x       y       z     vdW  Elec       q    Type
REMARK                         _______ _______ _______ _____ _____    ______ ____
ROOT
ATOM      1  C   ASN A   3      38.698  31.926  30.843  0.00  0.00    +0.241 C 
ATOM      2  N   PHE A   4      39.193  32.408  31.980  0.00  0.00    -0.297 N 
ATOM      3  H   PHE A   4      38.576  32.490  32.813  0.00  0.00    +0.150 HD
ATOM      4  O   ASN A   3      39.424  31.486  29.945  0.00  0.00    -0.273 OA
ENDROOT
BRANCH   2   5
ATOM      5  CA  PHE A   4      40.598  32.826  32.077  0.00  0.00    +0.153 C 
BRANCH   5   6
ATOM      6  C   PHE A   4      41.272  32.317  33.358  0.00  0.00    +0.241 C 
ATOM      7  O   PHE A   4      40.903  32.728  34.462  0.00  0.00    -0.273 OA
ATOM      8  N   PHE A   5      42.262  31.434  33.211  0.00  0.00    -0.297 N 
ATOM      9  H   PHE A   5      42.594  31.189  32.256  0.00  0.00    +0.150 HD
BRANCH   8  10
ATOM     10  CA  PHE A   5      42.886  30.807  34.375  0.00  0.00    +0.153 C 
BRANCH  10  11
ATOM     11  C   PHE A   5      43.335  31.820  35.415  0.00  0.00    +0.241 C 
ATOM     12  N   GLU A   6      42.703  31.719  36.576  0.00  0.00    -0.298 N 
ATOM     13  H   GLU A   6      41.975  30.984  36.682  0.00  0.00    +0.150 HD
ATOM     14  O   PHE A   5      44.213  32.662  35.172  0.00  0.00    -0.273 OA
BRANCH  12  15
ATOM     15  CA  GLU A   6      42.979  32.585  37.705  0.00  0.00    +0.137 C 
BRANCH  15  16
ATOM     16  C   GLU A   6      43.759  31.733  38.700  0.00  0.00    +0.227 C 
ATOM     17  O   GLU A   6      43.227  30.750  39.246  0.00  0.00    -0.286 OA
ENDBRANCH  15  16
BRANCH  15  18
ATOM     18  CB  GLU A   6      41.653  33.043  38.312  0.00  0.00    +0.039 C 
BRANCH  18  19
ATOM     19  CG  GLU A   6      41.578  34.510  38.712  0.00  0.00    +0.116 C 
BRANCH  19  20
ATOM     20  CD  GLU A   6      40.246  34.852  39.380  0.00  0.00    +0.365 C 
ATOM     21  OE2 GLU A   6      40.240  35.670  40.330  0.00  0.00    -0.246 OA
ATOM     22  OE1 GLU A   6      39.206  34.293  38.967  0.00  0.00    -0.246 OA
ENDBRANCH  19  20
ENDBRANCH  18  19
ENDBRANCH  15  18
ENDBRANCH  12  15
ENDBRANCH  10  11
BRANCH  10  23
ATOM     23  CB  PHE A   5      44.043  29.866  34.007  0.00  0.00    +0.055 C 
BRANCH  23  24
ATOM     24  CG  PHE A   5      44.843  29.397  35.202  0.00  0.00    -0.020 A 
ATOM     25  CD2 PHE A   5      44.286  28.519  36.131  0.00  0.00    -0.004 A 
ATOM     26  CE2 PHE A   5      45.014  28.097  37.241  0.00  0.00    -0.000 A 
ATOM     27  CZ  PHE A   5      46.315  28.551  37.431  0.00  0.00    -0.000 A 
ATOM     28  CE1 PHE A   5      46.883  29.434  36.512  0.00  0.00    -0.000 A 
ATOM     29  CD1 PHE A   5      46.144  29.854  35.411  0.00  0.00    -0.004 A 
ENDBRANCH  23  24
ENDBRANCH  10  23
ENDBRANCH   8  10
ENDBRANCH   5   6
BRANCH   5  30
ATOM     30  CB  PHE A   4      40.653  34.359  31.989  0.00  0.00    +0.055 C 
BRANCH  30  31
ATOM     31  CG  PHE A   4      42.038  34.947  32.056  0.00  0.00    -0.020 A 
ATOM     32  CD2 PHE A   4      42.486  35.565  33.226  0.00  0.00    -0.004 A 
ATOM     33  CE2 PHE A   4      43.771  36.136  33.291  0.00  0.00    -0.000 A 
ATOM     34  CZ  PHE A   4      44.611  36.105  32.165  0.00  0.00    -0.000 A 
ATOM     35  CE1 PHE A   4      44.164  35.504  30.984  0.00  0.00    -0.000 A 
ATOM     36  CD1 PHE A   4      42.876  34.937  30.935  0.00  0.00    -0.004 A 
ENDBRANCH  30  31
ENDBRANCH   5  30
ENDBRANCH   2   5
BRANCH   1  37
ATOM     37  CA  ASN A   3      37.162  31.957  30.645  0.00  0.00    +0.158 C 
BRANCH  37  39
ATOM     38  C   ASP A   2      35.383  30.315  31.156  0.00  0.00    +0.241 C 
ATOM     39  N   ASN A   3      36.244  31.254  31.582  0.00  0.00    -0.297 N 
ATOM     40  H   ASN A   3      36.270  31.496  32.593  0.00  0.00    +0.150 HD
ATOM     41  O   ASP A   2      35.463  29.807  30.041  0.00  0.00    -0.273 OA
BRANCH  38  42
ATOM     42  CA  ASP A   2      34.288  29.847  32.141  0.00  0.00    +0.160 C 
BRANCH  42  45
ATOM     43  C   ASN A   1      35.023  30.267  34.430  0.00  0.00    +0.239 C 
ATOM     44  O   ASN A   1      35.430  29.121  34.594  0.00  0.00    -0.274 OA
ATOM     45  N   ASP A   2      34.421  30.677  33.324  0.00  0.00    -0.297 N 
ATOM     46  H   ASP A   2      34.025  31.638  33.302  0.00  0.00    +0.150 HD
BRANCH  43  47
ATOM     47  CA  ASN A   1      35.196  31.317  35.513  0.00  0.00    +0.154 C 
BRANCH  47  48
ATOM     48  N   ASN A   1      34.405  31.113  36.737  0.00  0.00    -0.238 NA
ATOM     49  H   ASN A   1      34.838  30.603  37.533  0.00  0.00    +0.142 HD
ENDBRANCH  47  48
BRANCH  47  50
ATOM     50  CB  ASN A   1      36.673  31.411  35.850  0.00  0.00    +0.111 C 
BRANCH  50  51
ATOM     51  CG  ASN A   1      37.012  32.685  36.549  0.00  0.00    +0.221 C 
ATOM     52  ND2 ASN A   1      38.162  32.706  37.207  0.00  0.00    -0.329 N 
ATOM     53 HD21 ASN A   1      38.456  33.566  37.712  0.00  0.00    +0.145 HD
ATOM     54 HD22 ASN A   1      38.770  31.862  37.218  0.00  0.00    +0.145 HD
ATOM     55  OD1 ASN A   1      36.250  33.656  36.501  0.00  0.00    -0.275 OA
ENDBRANCH  50  51
ENDBRANCH  47  50
ENDBRANCH  43  47
ENDBRANCH  42  45
BRANCH  42  56
ATOM     56  CB  ASP A   2      32.864  30.036  31.572  0.00  0.00    +0.143 C 
BRANCH  56  57
ATOM     57  CG  ASP A   2      32.428  28.912  30.616  0.00  0.00    +0.367 C 
ATOM     58  OD2 ASP A   2      31.760  27.936  31.067  0.00  0.00    -0.246 OA
ATOM     59  OD1 ASP A   2      32.731  29.012  29.398  0.00  0.00    -0.246 OA
ENDBRANCH  56  57
ENDBRANCH  42  56
ENDBRANCH  38  42
ENDBRANCH  37  39
BRANCH  37  60
ATOM     60  CB  ASN A   3      36.680  33.398  30.337  0.00  0.00    +0.114 C 
BRANCH  60  61
ATOM     61  CG  ASN A   3      36.854  34.370  31.514  0.00  0.00    +0.222 C 
ATOM     62  OD1 ASN A   3      36.363  34.138  32.624  0.00  0.00    -0.275 OA
ATOM     63  ND2 ASN A   3      37.532  35.487  31.252  0.00  0.00    -0.329 N 
ATOM     64 HD21 ASN A   3      37.664  36.202  31.996  0.00  0.00    +0.145 HD
ATOM     65 HD22 ASN A   3      37.929  35.644  30.304  0.00  0.00    +0.145 HD
ENDBRANCH  60  61
ENDBRANCH  37  60
ENDBRANCH   1  37
TORSDOF 25
REMARK  Name = ../refined-set-2016/3g2l/3g2l_pocket.pdb
REMARK  260 active torsions:
REMARK  status: ('A' for Active; 'I' for Inactive)
REMARK    1  A    between atoms: _1  and  _3
REMARK    2  A    between atoms: _3  and  _4
REMARK    3  A    between atoms: _3  and  _6
REMARK    4  A    between atoms: _6  and  _7
REMARK    5  A    between atoms: _12  and  _13
REMARK    6  A    between atoms: _15  and  _17
REMARK    7  A    between atoms: _17  and  _18
REMARK    8  A    between atoms: _17  and  _20
REMARK    9  A    between atoms: _20  and  _21
REMARK   10  A    between atoms: _21  and  _22
REMARK   11  A    between atoms: _25  and  _27
REMARK   12  A    between atoms: _27  and  _28
REMARK   13  A    between atoms: _27  and  _30
REMARK   14  A    between atoms: _30  and  _31
REMARK   15  A    between atoms: _36  and  _38
REMARK   16  A    between atoms: _38  and  _39
REMARK   17  A    between atoms: _41  and  _43
REMARK   18  A    between atoms: _43  and  _44
REMARK   19  A    between atoms: _46  and  _48
REMARK   20  A    between atoms: _48  and  _49
REMARK   21  A    between atoms: _48  and  _51
REMARK   22  A    between atoms: _51  and  _52
REMARK   23  A    between atoms: _55  and  _57
REMARK   24  A    between atoms: _57  and  _58
REMARK   25  A    between atoms: _60  and  _62
REMARK   26  A    between atoms: _62  and  _63
REMARK   27  A    between atoms: _62  and  _65
REMARK   28  A    between atoms: _65  and  _66
REMARK   29  A    between atoms: _66  and  _67
REMARK   30  A    between atoms: _67  and  _68
REMARK   31  A    between atoms: _77  and  _79
REMARK   32  A    between atoms: _79  and  _80
REMARK   33  A    between atoms: _79  and  _82
REMARK   34  A    between atoms: _82  and  _83
REMARK   35  A    between atoms: _86  and  _88
REMARK   36  A    between atoms: _88  and  _89
REMARK   37  A    between atoms: _92  and  _94
REMARK   38  A    between atoms: _94  and  _95
REMARK   39  A    between atoms: _94  and  _97
REMARK   40  A    between atoms: _97  and  _98
REMARK   41  A    between atoms: _104  and  _106
REMARK   42  A    between atoms: _106  and  _107
REMARK   43  A    between atoms: _106  and  _109
REMARK   44  A    between atoms: _109  and  _110
REMARK   45  A    between atoms: _115  and  _117
REMARK   46  A    between atoms: _117  and  _118
REMARK   47  A    between atoms: _117  and  _120
REMARK   48  A    between atoms: _120  and  _121
REMARK   49  A    between atoms: _124  and  _126
REMARK   50  A    between atoms: _126  and  _127
REMARK   51  A    between atoms: _126  and  _129
REMARK   52  A    between atoms: _129  and  _130
REMARK   53  A    between atoms: _135  and  _137
REMARK   54  A    between atoms: _137  and  _138
REMARK   55  A    between atoms: _137  and  _140
REMARK   56  A    between atoms: _140  and  _141
REMARK   57  A    between atoms: _147  and  _149
REMARK   58  A    between atoms: _149  and  _150
REMARK   59  A    between atoms: _149  and  _152
REMARK   60  A    between atoms: _152  and  _153
REMARK   61  A    between atoms: _159  and  _161
REMARK   62  A    between atoms: _161  and  _162
REMARK   63  A    between atoms: _161  and  _164
REMARK   64  A    between atoms: _164  and  _165
REMARK   65  A    between atoms: _165  and  _166
REMARK   66  A    between atoms: _169  and  _171
REMARK   67  A    between atoms: _171  and  _172
REMARK   68  A    between atoms: _171  and  _174
REMARK   69  A    between atoms: _174  and  _175
REMARK   70  A    between atoms: _175  and  _176
REMARK   71  A    between atoms: _176  and  _177
REMARK   72  A    between atoms: _186  and  _188
REMARK   73  A    between atoms: _188  and  _189
REMARK   74  A    between atoms: _188  and  _191
REMARK   75  A    between atoms: _191  and  _192
REMARK   76  A    between atoms: _197  and  _199
REMARK   77  A    between atoms: _199  and  _200
REMARK   78  A    between atoms: _199  and  _202
REMARK   79  A    between atoms: _202  and  _203
REMARK   80  A    between atoms: _206  and  _208
REMARK   81  A    between atoms: _208  and  _209
REMARK   82  A    between atoms: _208  and  _211
REMARK   83  A    between atoms: _211  and  _212
REMARK   84  A    between atoms: _215  and  _217
REMARK   85  A    between atoms: _217  and  _218
REMARK   86  A    between atoms: _217  and  _220
REMARK   87  A    between atoms: _220  and  _221
REMARK   88  A    between atoms: _226  and  _228
REMARK   89  A    between atoms: _228  and  _229
REMARK   90  A    between atoms: _228  and  _231
REMARK   91  A    between atoms: _231  and  _232
REMARK   92  A    between atoms: _235  and  _237
REMARK   93  A    between atoms: _237  and  _238
REMARK   94  A    between atoms: _237  and  _240
REMARK   95  A    between atoms: _240  and  _241
REMARK   96  A    between atoms: _246  and  _248
REMARK   97  A    between atoms: _248  and  _249
REMARK   98  A    between atoms: _248  and  _251
REMARK   99  A    between atoms: _251  and  _252
REMARK  100  A    between atoms: _257  and  _259
REMARK  101  A    between atoms: _259  and  _260
REMARK  102  A    between atoms: _259  and  _262
REMARK  103  A    between atoms: _262  and  _263
REMARK  104  A    between atoms: _266  and  _268
REMARK  105  A    between atoms: _268  and  _269
REMARK  106  A    between atoms: _268  and  _271
REMARK  107  A    between atoms: _274  and  _276
REMARK  108  A    between atoms: _276  and  _277
REMARK  109  A    between atoms: _276  and  _279
REMARK  110  A    between atoms: _279  and  _280
REMARK  111  A    between atoms: _284  and  _285
REMARK  112  A    between atoms: _290  and  _292
REMARK  113  A    between atoms: _292  and  _293
REMARK  114  A    between atoms: _292  and  _295
REMARK  115  A    between atoms: _295  and  _296
REMARK  116  A    between atoms: _296  and  _297
REMARK  117  A    between atoms: _300  and  _302
REMARK  118  A    between atoms: _302  and  _303
REMARK  119  A    between atoms: _306  and  _308
REMARK  120  A    between atoms: _308  and  _309
REMARK  121  A    between atoms: _308  and  _311
REMARK  122  A    between atoms: _311  and  _312
REMARK  123  A    between atoms: _315  and  _317
REMARK  124  A    between atoms: _317  and  _318
REMARK  125  A    between atoms: _317  and  _320
REMARK  126  A    between atoms: _320  and  _321
REMARK  127  A    between atoms: _321  and  _322
REMARK  128  A    between atoms: _325  and  _327
REMARK  129  A    between atoms: _327  and  _328
REMARK  130  A    between atoms: _327  and  _330
REMARK  131  A    between atoms: _330  and  _331
REMARK  132  A    between atoms: _336  and  _338
REMARK  133  A    between atoms: _338  and  _339
REMARK  134  A    between atoms: _341  and  _343
REMARK  135  A    between atoms: _343  and  _344
REMARK  136  A    between atoms: _343  and  _346
REMARK  137  A    between atoms: _349  and  _351
REMARK  138  A    between atoms: _351  and  _352
REMARK  139  A    between atoms: _355  and  _357
REMARK  140  A    between atoms: _357  and  _358
REMARK  141  A    between atoms: _357  and  _360
REMARK  142  A    between atoms: _360  and  _361
REMARK  143  A    between atoms: _366  and  _368
REMARK  144  A    between atoms: _368  and  _369
REMARK  145  A    between atoms: _368  and  _371
REMARK  146  A    between atoms: _371  and  _372
REMARK  147  A    between atoms: _372  and  _373
REMARK  148  A    between atoms: _373  and  _374
REMARK  149  A    between atoms: _374  and  _375
REMARK  150  A    between atoms: _379  and  _381
REMARK  151  A    between atoms: _381  and  _382
REMARK  152  A    between atoms: _381  and  _384
REMARK  153  A    between atoms: _384  and  _385
REMARK  154  A    between atoms: _388  and  _390
REMARK  155  A    between atoms: _390  and  _391
REMARK  156  A    between atoms: _390  and  _393
REMARK  157  A    between atoms: _393  and  _394
REMARK  158  A    between atoms: _399  and  _401
REMARK  159  A    between atoms: _401  and  _402
REMARK  160  A    between atoms: _404  and  _406
REMARK  161  A    between atoms: _406  and  _407
REMARK  162  A    between atoms: _406  and  _409
REMARK  163  A    between atoms: _409  and  _410
REMARK  164  A    between atoms: _410  and  _411
REMARK  165  A    between atoms: _411  and  _412
REMARK  166  A    between atoms: _412  and  _413
REMARK  167  A    between atoms: _417  and  _419
REMARK  168  A    between atoms: _419  and  _420
REMARK  169  A    between atoms: _419  and  _422
REMARK  170  A    between atoms: _422  and  _423
REMARK  171  A    between atoms: _423  and  _424
REMARK  172  A    between atoms: _424  and  _425
REMARK  173  A    between atoms: _434  and  _436
REMARK  174  A    between atoms: _436  and  _437
REMARK  175  A    between atoms: _436  and  _439
REMARK  176  A    between atoms: _439  and  _440
REMARK  177  A    between atoms: _445  and  _447
REMARK  178  A    between atoms: _447  and  _448
REMARK  179  A    between atoms: _447  and  _450
REMARK  180  A    between atoms: _450  and  _451
REMARK  181  A    between atoms: _456  and  _457
REMARK  182  A    between atoms: _459  and  _461
REMARK  183  A    between atoms: _461  and  _462
REMARK  184  A    between atoms: _461  and  _464
REMARK  185  A    between atoms: _464  and  _465
REMARK  186  A    between atoms: _465  and  _466
REMARK  187  A    between atoms: _466  and  _467
REMARK  188  A    between atoms: _467  and  _468
REMARK  189  A    between atoms: _472  and  _474
REMARK  190  A    between atoms: _474  and  _475
REMARK  191  A    between atoms: _474  and  _477
REMARK  192  A    between atoms: _477  and  _478
REMARK  193  A    between atoms: _483  and  _484
REMARK  194  A    between atoms: _486  and  _488
REMARK  195  A    between atoms: _488  and  _489
REMARK  196  A    between atoms: _488  and  _491
REMARK  197  A    between atoms: _491  and  _492
REMARK  198  A    between atoms: _494  and  _496
REMARK  199  A    between atoms: _496  and  _497
REMARK  200  A    between atoms: _496  and  _499
REMARK  201  A    between atoms: _499  and  _500
REMARK  202  A    between atoms: _503  and  _505
REMARK  203  A    between atoms: _505  and  _506
REMARK  204  A    between atoms: _505  and  _508
REMARK  205  A    between atoms: _508  and  _509
REMARK  206  A    between atoms: _509  and  _510
REMARK  207  A    between atoms: _513  and  _515
REMARK  208  A    between atoms: _515  and  _516
REMARK  209  A    between atoms: _519  and  _521
REMARK  210  A    between atoms: _521  and  _522
REMARK  211  A    between atoms: _521  and  _524
REMARK  212  A    between atoms: _524  and  _525
REMARK  213  A    between atoms: _527  and  _529
REMARK  214  A    between atoms: _529  and  _530
REMARK  215  A    between atoms: _532  and  _534
REMARK  216  A    between atoms: _534  and  _535
REMARK  217  A    between atoms: _534  and  _537
REMARK  218  A    between atoms: _537  and  _538
REMARK  219  A    between atoms: _541  and  _543
REMARK  220  A    between atoms: _543  and  _544
REMARK  221  A    between atoms: _546  and  _548
REMARK  222  A    between atoms: _548  and  _549
REMARK  223  A    between atoms: _548  and  _551
REMARK  224  A    between atoms: _551  and  _552
REMARK  225  A    between atoms: _557  and  _559
REMARK  226  A    between atoms: _559  and  _560
REMARK  227  A    between atoms: _559  and  _562
REMARK  228  A    between atoms: _562  and  _563
REMARK  229  A    between atoms: _563  and  _564
REMARK  230  A    between atoms: _571  and  _572
REMARK  231  A    between atoms: _572  and  _588
REMARK  232  A    between atoms: _573  and  _575
REMARK  233  A    between atoms: _575  and  _576
REMARK  234  A    between atoms: _576  and  _577
REMARK  235  A    between atoms: _581  and  _583
REMARK  236  A    between atoms: _583  and  _584
REMARK  237  A    between atoms: _583  and  _591
REMARK  238  A    between atoms: _584  and  _585
REMARK  239  A    between atoms: _585  and  _586
REMARK  240  A    between atoms: _586  and  _587
REMARK  241  A    between atoms: _587  and  _588
REMARK  242  A    between atoms: _593  and  _595
REMARK  243  A    between atoms: _595  and  _596
REMARK  244  A    between atoms: _595  and  _598
REMARK  245  A    between atoms: _598  and  _599
REMARK  246  A    between atoms: _602  and  _604
REMARK  247  A    between atoms: _604  and  _605
REMARK  248  A    between atoms: _607  and  _609
REMARK  249  A    between atoms: _609  and  _610
REMARK  250  A    between atoms: _613  and  _615
REMARK  251  A    between atoms: _615  and  _616
REMARK  252  A    between atoms: _615  and  _618
REMARK  253  A    between atoms: _618  and  _619
REMARK  254  A    between atoms: _619  and  _620
REMARK  255  A    between atoms: _620  and  _621
REMARK  256  A    between atoms: _630  and  _632
REMARK  257  A    between atoms: _632  and  _633
REMARK  258  A    between atoms: _632  and  _635
REMARK  259  A    between atoms: _635  and  _636
REMARK  260  A    between atoms: _641  and  _642
REMARK                            x       y       z     vdW  Elec       q    Type
REMARK                         _______ _______ _______ _____ _____    ______ ____
ROOT
ATOM      1  NE  ARG A   1      39.521  25.883  40.191  0.00  0.00    -0.265 N 
ATOM      2  CZ  ARG A   1      38.379  25.407  39.705  0.00  0.00    +0.342 C 
ATOM      3  NH2 ARG A   1      37.234  25.603  40.349  0.00  0.00    -0.292 N 
ATOM      4 HH21 ARG A   1      37.225  26.134  41.243  0.00  0.00    +0.255 HD
ATOM      5 HH22 ARG A   1      36.347  25.226  39.959  0.00  0.00    +0.255 HD
ATOM      6  NH1 ARG A   1      38.385  24.723  38.568  0.00  0.00    -0.292 N 
ATOM      7 HH11 ARG A   1      37.495  24.348  38.182  0.00  0.00    +0.255 HD
ATOM      8 HH12 ARG A   1      39.280  24.562  38.063  0.00  0.00    +0.255 HD
ATOM      9  HE  ARG A   1      40.389  25.692  39.651  0.00  0.00    +0.259 HD
ENDROOT
BRANCH   1  10
ATOM     10  CD  ARG A   1      39.650  26.653  41.424  0.00  0.00    +0.174 C 
BRANCH  10  11
ATOM     11  CG  ARG A   1      41.028  27.319  41.523  0.00  0.00    +0.045 C 
BRANCH  11  12
ATOM     12  CB  ARG A   1      41.124  28.292  42.700  0.00  0.00    +0.029 C 
BRANCH  12  13
ATOM     13  CA  ARG A   1      41.078  27.653  44.094  0.00  0.00    +0.133 C 
BRANCH  13  14
ATOM     14  N   ARG A   1      41.405  28.636  45.137  0.00  0.00    -0.239 NA
ATOM     15  H   ARG A   1      41.779  29.564  44.853  0.00  0.00    +0.142 HD
ENDBRANCH  13  14
BRANCH  13  16
ATOM     16  C   ARG A   1      41.993  26.427  44.157  0.00  0.00    +0.224 C 
ATOM     17  O   ARG A   1      41.535  25.298  43.980  0.00  0.00    -0.287 OA
ENDBRANCH  13  16
ENDBRANCH  12  13
ENDBRANCH  11  12
ENDBRANCH  10  11
ENDBRANCH   1  10
TORSDOF 6
REMARK  Name = ../refined-set-2016/3g2l/3g2l_pocket.pdb
REMARK  260 active torsions:
REMARK  status: ('A' for Active; 'I' for Inactive)
REMARK    1  A    between atoms: _1  and  _3
REMARK    2  A    between atoms: _3  and  _4
REMARK    3  A    between atoms: _3  and  _6
REMARK    4  A    between atoms: _6  and  _7
REMARK    5  A    between atoms: _12  and  _13
REMARK    6  A    between atoms: _15  and  _17
REMARK    7  A    between atoms: _17  and  _18
REMARK    8  A    between atoms: _17  and  _20
REMARK    9  A    between atoms: _20  and  _21
REMARK   10  A    between atoms: _21  and  _22
REMARK   11  A    between atoms: _25  and  _27
REMARK   12  A    between atoms: _27  and  _28
REMARK   13  A    between atoms: _27  and  _30
REMARK   14  A    between atoms: _30  and  _31
REMARK   15  A    between atoms: _36  and  _38
REMARK   16  A    between atoms: _38  and  _39
REMARK   17  A    between atoms: _41  and  _43
REMARK   18  A    between atoms: _43  and  _44
REMARK   19  A    between atoms: _46  and  _48
REMARK   20  A    between atoms: _48  and  _49
REMARK   21  A    between atoms: _48  and  _51
REMARK   22  A    between atoms: _51  and  _52
REMARK   23  A    between atoms: _55  and  _57
REMARK   24  A    between atoms: _57  and  _58
REMARK   25  A    between atoms: _60  and  _62
REMARK   26  A    between atoms: _62  and  _63
REMARK   27  A    between atoms: _62  and  _65
REMARK   28  A    between atoms: _65  and  _66
REMARK   29  A    between atoms: _66  and  _67
REMARK   30  A    between atoms: _67  and  _68
REMARK   31  A    between atoms: _77  and  _79
REMARK   32  A    between atoms: _79  and  _80
REMARK   33  A    between atoms: _79  and  _82
REMARK   34  A    between atoms: _82  and  _83
REMARK   35  A    between atoms: _86  and  _88
REMARK   36  A    between atoms: _88  and  _89
REMARK   37  A    between atoms: _92  and  _94
REMARK   38  A    between atoms: _94  and  _95
REMARK   39  A    between atoms: _94  and  _97
REMARK   40  A    between atoms: _97  and  _98
REMARK   41  A    between atoms: _104  and  _106
REMARK   42  A    between atoms: _106  and  _107
REMARK   43  A    between atoms: _106  and  _109
REMARK   44  A    between atoms: _109  and  _110
REMARK   45  A    between atoms: _115  and  _117
REMARK   46  A    between atoms: _117  and  _118
REMARK   47  A    between atoms: _117  and  _120
REMARK   48  A    between atoms: _120  and  _121
REMARK   49  A    between atoms: _124  and  _126
REMARK   50  A    between atoms: _126  and  _127
REMARK   51  A    between atoms: _126  and  _129
REMARK   52  A    between atoms: _129  and  _130
REMARK   53  A    between atoms: _135  and  _137
REMARK   54  A    between atoms: _137  and  _138
REMARK   55  A    between atoms: _137  and  _140
REMARK   56  A    between atoms: _140  and  _141
REMARK   57  A    between atoms: _147  and  _149
REMARK   58  A    between atoms: _149  and  _150
REMARK   59  A    between atoms: _149  and  _152
REMARK   60  A    between atoms: _152  and  _153
REMARK   61  A    between atoms: _159  and  _161
REMARK   62  A    between atoms: _161  and  _162
REMARK   63  A    between atoms: _161  and  _164
REMARK   64  A    between atoms: _164  and  _165
REMARK   65  A    between atoms: _165  and  _166
REMARK   66  A    between atoms: _169  and  _171
REMARK   67  A    between atoms: _171  and  _172
REMARK   68  A    between atoms: _171  and  _174
REMARK   69  A    between atoms: _174  and  _175
REMARK   70  A    between atoms: _175  and  _176
REMARK   71  A    between atoms: _176  and  _177
REMARK   72  A    between atoms: _186  and  _188
REMARK   73  A    between atoms: _188  and  _189
REMARK   74  A    between atoms: _188  and  _191
REMARK   75  A    between atoms: _191  and  _192
REMARK   76  A    between atoms: _197  and  _199
REMARK   77  A    between atoms: _199  and  _200
REMARK   78  A    between atoms: _199  and  _202
REMARK   79  A    between atoms: _202  and  _203
REMARK   80  A    between atoms: _206  and  _208
REMARK   81  A    between atoms: _208  and  _209
REMARK   82  A    between atoms: _208  and  _211
REMARK   83  A    between atoms: _211  and  _212
REMARK   84  A    between atoms: _215  and  _217
REMARK   85  A    between atoms: _217  and  _218
REMARK   86  A    between atoms: _217  and  _220
REMARK   87  A    between atoms: _220  and  _221
REMARK   88  A    between atoms: _226  and  _228
REMARK   89  A    between atoms: _228  and  _229
REMARK   90  A    between atoms: _228  and  _231
REMARK   91  A    between atoms: _231  and  _232
REMARK   92  A    between atoms: _235  and  _237
REMARK   93  A    between atoms: _237  and  _238
REMARK   94  A    between atoms: _237  and  _240
REMARK   95  A    between atoms: _240  and  _241
REMARK   96  A    between atoms: _246  and  _248
REMARK   97  A    between atoms: _248  and  _249
REMARK   98  A    between atoms: _248  and  _251
REMARK   99  A    between atoms: _251  and  _252
REMARK  100  A    between atoms: _257  and  _259
REMARK  101  A    between atoms: _259  and  _260
REMARK  102  A    between atoms: _259  and  _262
REMARK  103  A    between atoms: _262  and  _263
REMARK  104  A    between atoms: _266  and  _268
REMARK  105  A    between atoms: _268  and  _269
REMARK  106  A    between atoms: _268  and  _271
REMARK  107  A    between atoms: _274  and  _276
REMARK  108  A    between atoms: _276  and  _277
REMARK  109  A    between atoms: _276  and  _279
REMARK  110  A    between atoms: _279  and  _280
REMARK  111  A    between atoms: _284  and  _285
REMARK  112  A    between atoms: _290  and  _292
REMARK  113  A    between atoms: _292  and  _293
REMARK  114  A    between atoms: _292  and  _295
REMARK  115  A    between atoms: _295  and  _296
REMARK  116  A    between atoms: _296  and  _297
REMARK  117  A    between atoms: _300  and  _302
REMARK  118  A    between atoms: _302  and  _303
REMARK  119  A    between atoms: _306  and  _308
REMARK  120  A    between atoms: _308  and  _309
REMARK  121  A    between atoms: _308  and  _311
REMARK  122  A    between atoms: _311  and  _312
REMARK  123  A    between atoms: _315  and  _317
REMARK  124  A    between atoms: _317  and  _318
REMARK  125  A    between atoms: _317  and  _320
REMARK  126  A    between atoms: _320  and  _321
REMARK  127  A    between atoms: _321  and  _322
REMARK  128  A    between atoms: _325  and  _327
REMARK  129  A    between atoms: _327  and  _328
REMARK  130  A    between atoms: _327  and  _330
REMARK  131  A    between atoms: _330  and  _331
REMARK  132  A    between atoms: _336  and  _338
REMARK  133  A    between atoms: _338  and  _339
REMARK  134  A    between atoms: _341  and  _343
REMARK  135  A    between atoms: _343  and  _344
REMARK  136  A    between atoms: _343  and  _346
REMARK  137  A    between atoms: _349  and  _351
REMARK  138  A    between atoms: _351  and  _352
REMARK  139  A    between atoms: _355  and  _357
REMARK  140  A    between atoms: _357  and  _358
REMARK  141  A    between atoms: _357  and  _360
REMARK  142  A    between atoms: _360  and  _361
REMARK  143  A    between atoms: _366  and  _368
REMARK  144  A    between atoms: _368  and  _369
REMARK  145  A    between atoms: _368  and  _371
REMARK  146  A    between atoms: _371  and  _372
REMARK  147  A    between atoms: _372  and  _373
REMARK  148  A    between atoms: _373  and  _374
REMARK  149  A    between atoms: _374  and  _375
REMARK  150  A    between atoms: _379  and  _381
REMARK  151  A    between atoms: _381  and  _382
REMARK  152  A    between atoms: _381  and  _384
REMARK  153  A    between atoms: _384  and  _385
REMARK  154  A    between atoms: _388  and  _390
REMARK  155  A    between atoms: _390  and  _391
REMARK  156  A    between atoms: _390  and  _393
REMARK  157  A    between atoms: _393  and  _394
REMARK  158  A    between atoms: _399  and  _401
REMARK  159  A    between atoms: _401  and  _402
REMARK  160  A    between atoms: _404  and  _406
REMARK  161  A    between atoms: _406  and  _407
REMARK  162  A    between atoms: _406  and  _409
REMARK  163  A    between atoms: _409  and  _410
REMARK  164  A    between atoms: _410  and  _411
REMARK  165  A    between atoms: _411  and  _412
REMARK  166  A    between atoms: _412  and  _413
REMARK  167  A    between atoms: _417  and  _419
REMARK  168  A    between atoms: _419  and  _420
REMARK  169  A    between atoms: _419  and  _422
REMARK  170  A    between atoms: _422  and  _423
REMARK  171  A    between atoms: _423  and  _424
REMARK  172  A    between atoms: _424  and  _425
REMARK  173  A    between atoms: _434  and  _436
REMARK  174  A    between atoms: _436  and  _437
REMARK  175  A    between atoms: _436  and  _439
REMARK  176  A    between atoms: _439  and  _440
REMARK  177  A    between atoms: _445  and  _447
REMARK  178  A    between atoms: _447  and  _448
REMARK  179  A    between atoms: _447  and  _450
REMARK  180  A    between atoms: _450  and  _451
REMARK  181  A    between atoms: _456  and  _457
REMARK  182  A    between atoms: _459  and  _461
REMARK  183  A    between atoms: _461  and  _462
REMARK  184  A    between atoms: _461  and  _464
REMARK  185  A    between atoms: _464  and  _465
REMARK  186  A    between atoms: _465  and  _466
REMARK  187  A    between atoms: _466  and  _467
REMARK  188  A    between atoms: _467  and  _468
REMARK  189  A    between atoms: _472  and  _474
REMARK  190  A    between atoms: _474  and  _475
REMARK  191  A    between atoms: _474  and  _477
REMARK  192  A    between atoms: _477  and  _478
REMARK  193  A    between atoms: _483  and  _484
REMARK  194  A    between atoms: _486  and  _488
REMARK  195  A    between atoms: _488  and  _489
REMARK  196  A    between atoms: _488  and  _491
REMARK  197  A    between atoms: _491  and  _492
REMARK  198  A    between atoms: _494  and  _496
REMARK  199  A    between atoms: _496  and  _497
REMARK  200  A    between atoms: _496  and  _499
REMARK  201  A    between atoms: _499  and  _500
REMARK  202  A    between atoms: _503  and  _505
REMARK  203  A    between atoms: _505  and  _506
REMARK  204  A    between atoms: _505  and  _508
REMARK  205  A    between atoms: _508  and  _509
REMARK  206  A    between atoms: _509  and  _510
REMARK  207  A    between atoms: _513  and  _515
REMARK  208  A    between atoms: _515  and  _516
REMARK  209  A    between atoms: _519  and  _521
REMARK  210  A    between atoms: _521  and  _522
REMARK  211  A    between atoms: _521  and  _524
REMARK  212  A    between atoms: _524  and  _525
REMARK  213  A    between atoms: _527  and  _529
REMARK  214  A    between atoms: _529  and  _530
REMARK  215  A    between atoms: _532  and  _534
REMARK  216  A    between atoms: _534  and  _535
REMARK  217  A    between atoms: _534  and  _537
REMARK  218  A    between atoms: _537  and  _538
REMARK  219  A    between atoms: _541  and  _543
REMARK  220  A    between atoms: _543  and  _544
REMARK  221  A    between atoms: _546  and  _548
REMARK  222  A    between atoms: _548  and  _549
REMARK  223  A    between atoms: _548  and  _551
REMARK  224  A    between atoms: _551  and  _552
REMARK  225  A    between atoms: _557  and  _559
REMARK  226  A    between atoms: _559  and  _560
REMARK  227  A    between atoms: _559  and  _562
REMARK  228  A    between atoms: _562  and  _563
REMARK  229  A    between atoms: _563  and  _564
REMARK  230  A    between atoms: _571  and  _572
REMARK  231  A    between atoms: _572  and  _588
REMARK  232  A    between atoms: _573  and  _575
REMARK  233  A    between atoms: _575  and  _576
REMARK  234  A    between atoms: _576  and  _577
REMARK  235  A    between atoms: _581  and  _583
REMARK  236  A    between atoms: _583  and  _584
REMARK  237  A    between atoms: _583  and  _591
REMARK  238  A    between atoms: _584  and  _585
REMARK  239  A    between atoms: _585  and  _586
REMARK  240  A    between atoms: _586  and  _587
REMARK  241  A    between atoms: _587  and  _588
REMARK  242  A    between atoms: _593  and  _595
REMARK  243  A    between atoms: _595  and  _596
REMARK  244  A    between atoms: _595  and  _598
REMARK  245  A    between atoms: _598  and  _599
REMARK  246  A    between atoms: _602  and  _604
REMARK  247  A    between atoms: _604  and  _605
REMARK  248  A    between atoms: _607  and  _609
REMARK  249  A    between atoms: _609  and  _610
REMARK  250  A    between atoms: _613  and  _615
REMARK  251  A    between atoms: _615  and  _616
REMARK  252  A    between atoms: _615  and  _618
REMARK  253  A    between atoms: _618  and  _619
REMARK  254  A    between atoms: _619  and  _620
REMARK  255  A    between atoms: _620  and  _621
REMARK  256  A    between atoms: _630  and  _632
REMARK  257  A    between atoms: _632  and  _633
REMARK  258  A    between atoms: _632  and  _635
REMARK  259  A    between atoms: _635  and  _636
REMARK  260  A    between atoms: _641  and  _642
REMARK                            x       y       z     vdW  Elec       q    Type
REMARK                         _______ _______ _______ _____ _____    ______ ____
ROOT
ATOM      1  C   ASP A   2      41.223  18.274  34.016  0.00  0.00    +0.241 C 
ATOM      2  O   ASP A   2      41.385  17.220  34.640  0.00  0.00    -0.273 OA
ATOM      3  N   THR A   3      42.039  19.315  34.142  0.00  0.00    -0.295 N 
ATOM      4  H   THR A   3      41.832  20.183  33.608  0.00  0.00    +0.150 HD
ENDROOT
BRANCH   1   5
ATOM      5  CA  ASP A   2      40.049  18.421  33.037  0.00  0.00    +0.160 C 
BRANCH   5   8
ATOM      6  C   ASN A   1      38.272  17.288  34.346  0.00  0.00    +0.239 C 
ATOM      7  O   ASN A   1      38.175  18.178  35.213  0.00  0.00    -0.274 OA
ATOM      8  N   ASP A   2      39.056  17.371  33.269  0.00  0.00    -0.297 N 
ATOM      9  H   ASP A   2      38.954  16.635  32.541  0.00  0.00    +0.150 HD
BRANCH   6  10
ATOM     10  CA  ASN A   1      37.500  15.975  34.459  0.00  0.00    +0.154 C 
BRANCH  10  11
ATOM     11  N   ASN A   1      38.286  15.033  35.255  0.00  0.00    -0.238 NA
ATOM     12  H   ASN A   1      38.057  14.921  36.263  0.00  0.00    +0.142 HD
ENDBRANCH  10  11
BRANCH  10  13
ATOM     13  CB  ASN A   1      36.100  16.181  35.065  0.00  0.00    +0.111 C 
BRANCH  13  14
ATOM     14  CG  ASN A   1      35.104  16.793  34.077  0.00  0.00    +0.221 C 
ATOM     15  ND2 ASN A   1      34.037  17.385  34.611  0.00  0.00    -0.329 N 
ATOM     16 HD21 ASN A   1      33.923  17.417  35.644  0.00  0.00    +0.145 HD
ATOM     17 HD22 ASN A   1      33.318  17.815  33.995  0.00  0.00    +0.145 HD
ATOM     18  OD1 ASN A   1      35.287  16.728  32.853  0.00  0.00    -0.275 OA
ENDBRANCH  13  14
ENDBRANCH  10  13
ENDBRANCH   6  10
ENDBRANCH   5   8
BRANCH   5  19
ATOM     19  CB  ASP A   2      39.425  19.825  33.067  0.00  0.00    +0.143 C 
BRANCH  19  20
ATOM     20  CG  ASP A   2      40.116  20.794  32.110  0.00  0.00    +0.367 C 
ATOM     21  OD2 ASP A   2      41.341  20.991  32.223  0.00  0.00    -0.246 OA
ATOM     22  OD1 ASP A   2      39.433  21.352  31.228  0.00  0.00    -0.246 OA
ENDBRANCH  19  20
ENDBRANCH   5  19
ENDBRANCH   1   5
BRANCH   3  23
ATOM     23  CA  THR A   3      43.220  19.281  35.007  0.00  0.00    +0.176 C 
BRANCH  23  24
ATOM     24  C   THR A   3      42.897  19.708  36.435  0.00  0.00    +0.243 C 
ATOM     25  O   THR A   3      43.778  19.701  37.305  0.00  0.00    -0.273 OA
ATOM     26  N   HIS A   4      41.648  20.099  36.679  0.00  0.00    -0.298 N 
ATOM     27  H   HIS A   4      40.937  20.046  35.922  0.00  0.00    +0.150 HD
BRANCH  26  28
ATOM     28  CA  HIS A   4      41.262  20.602  37.996  0.00  0.00    +0.143 C 
BRANCH  28  29
ATOM     29  C   HIS A   4      41.564  19.627  39.146  0.00  0.00    +0.227 C 
ATOM     30  O   HIS A   4      42.022  20.064  40.197  0.00  0.00    -0.286 OA
ENDBRANCH  28  29
BRANCH  28  31
ATOM     31  CB  HIS A   4      39.812  21.112  38.020  0.00  0.00    +0.075 C 
BRANCH  31  32
ATOM     32  CG  HIS A   4      39.463  21.994  36.860  0.00  0.00    +0.082 A 
ATOM     33  ND1 HIS A   4      38.196  22.044  36.319  0.00  0.00    -0.227 NA
ATOM     34  CE1 HIS A   4      38.186  22.892  35.306  0.00  0.00    +0.199 A 
ATOM     35  NE2 HIS A   4      39.406  23.381  35.157  0.00  0.00    -0.221 NA
ATOM     36  CD2 HIS A   4      40.226  22.828  36.109  0.00  0.00    +0.115 A 
ENDBRANCH  31  32
ENDBRANCH  28  31
ENDBRANCH  26  28
ENDBRANCH  23  24
BRANCH  23  37
ATOM     37  CB  THR A   3      44.338  20.230  34.495  0.00  0.00    +0.137 C 
ATOM     38  CG2 THR A   3      44.858  19.802  33.142  0.00  0.00    +0.034 C 
BRANCH  37  39
ATOM     39  OG1 THR A   3      43.820  21.558  34.397  0.00  0.00    -0.382 OA
ATOM     40  HG1 THR A   3      43.512  21.858  35.289  0.00  0.00    +0.210 HD
ENDBRANCH  37  39
ENDBRANCH  23  37
ENDBRANCH   3  23
TORSDOF 16
REMARK  Name = ../refined-set-2016/3g2l/3g2l_pocket.pdb
REMARK  260 active torsions:
REMARK  status: ('A' for Active; 'I' for Inactive)
REMARK    1  A    between atoms: _1  and  _3
REMARK    2  A    between atoms: _3  and  _4
REMARK    3  A    between atoms: _3  and  _6
REMARK    4  A    between atoms: _6  and  _7
REMARK    5  A    between atoms: _12  and  _13
REMARK    6  A    between atoms: _15  and  _17
REMARK    7  A    between atoms: _17  and  _18
REMARK    8  A    between atoms: _17  and  _20
REMARK    9  A    between atoms: _20  and  _21
REMARK   10  A    between atoms: _21  and  _22
REMARK   11  A    between atoms: _25  and  _27
REMARK   12  A    between atoms: _27  and  _28
REMARK   13  A    between atoms: _27  and  _30
REMARK   14  A    between atoms: _30  and  _31
REMARK   15  A    between atoms: _36  and  _38
REMARK   16  A    between atoms: _38  and  _39
REMARK   17  A    between atoms: _41  and  _43
REMARK   18  A    between atoms: _43  and  _44
REMARK   19  A    between atoms: _46  and  _48
REMARK   20  A    between atoms: _48  and  _49
REMARK   21  A    between atoms: _48  and  _51
REMARK   22  A    between atoms: _51  and  _52
REMARK   23  A    between atoms: _55  and  _57
REMARK   24  A    between atoms: _57  and  _58
REMARK   25  A    between atoms: _60  and  _62
REMARK   26  A    between atoms: _62  and  _63
REMARK   27  A    between atoms: _62  and  _65
REMARK   28  A    between atoms: _65  and  _66
REMARK   29  A    between atoms: _66  and  _67
REMARK   30  A    between atoms: _67  and  _68
REMARK   31  A    between atoms: _77  and  _79
REMARK   32  A    between atoms: _79  and  _80
REMARK   33  A    between atoms: _79  and  _82
REMARK   34  A    between atoms: _82  and  _83
REMARK   35  A    between atoms: _86  and  _88
REMARK   36  A    between atoms: _88  and  _89
REMARK   37  A    between atoms: _92  and  _94
REMARK   38  A    between atoms: _94  and  _95
REMARK   39  A    between atoms: _94  and  _97
REMARK   40  A    between atoms: _97  and  _98
REMARK   41  A    between atoms: _104  and  _106
REMARK   42  A    between atoms: _106  and  _107
REMARK   43  A    between atoms: _106  and  _109
REMARK   44  A    between atoms: _109  and  _110
REMARK   45  A    between atoms: _115  and  _117
REMARK   46  A    between atoms: _117  and  _118
REMARK   47  A    between atoms: _117  and  _120
REMARK   48  A    between atoms: _120  and  _121
REMARK   49  A    between atoms: _124  and  _126
REMARK   50  A    between atoms: _126  and  _127
REMARK   51  A    between atoms: _126  and  _129
REMARK   52  A    between atoms: _129  and  _130
REMARK   53  A    between atoms: _135  and  _137
REMARK   54  A    between atoms: _137  and  _138
REMARK   55  A    between atoms: _137  and  _140
REMARK   56  A    between atoms: _140  and  _141
REMARK   57  A    between atoms: _147  and  _149
REMARK   58  A    between atoms: _149  and  _150
REMARK   59  A    between atoms: _149  and  _152
REMARK   60  A    between atoms: _152  and  _153
REMARK   61  A    between atoms: _159  and  _161
REMARK   62  A    between atoms: _161  and  _162
REMARK   63  A    between atoms: _161  and  _164
REMARK   64  A    between atoms: _164  and  _165
REMARK   65  A    between atoms: _165  and  _166
REMARK   66  A    between atoms: _169  and  _171
REMARK   67  A    between atoms: _171  and  _172
REMARK   68  A    between atoms: _171  and  _174
REMARK   69  A    between atoms: _174  and  _175
REMARK   70  A    between atoms: _175  and  _176
REMARK   71  A    between atoms: _176  and  _177
REMARK   72  A    between atoms: _186  and  _188
REMARK   73  A    between atoms: _188  and  _189
REMARK   74  A    between atoms: _188  and  _191
REMARK   75  A    between atoms: _191  and  _192
REMARK   76  A    between atoms: _197  and  _199
REMARK   77  A    between atoms: _199  and  _200
REMARK   78  A    between atoms: _199  and  _202
REMARK   79  A    between atoms: _202  and  _203
REMARK   80  A    between atoms: _206  and  _208
REMARK   81  A    between atoms: _208  and  _209
REMARK   82  A    between atoms: _208  and  _211
REMARK   83  A    between atoms: _211  and  _212
REMARK   84  A    between atoms: _215  and  _217
REMARK   85  A    between atoms: _217  and  _218
REMARK   86  A    between atoms: _217  and  _220
REMARK   87  A    between atoms: _220  and  _221
REMARK   88  A    between atoms: _226  and  _228
REMARK   89  A    between atoms: _228  and  _229
REMARK   90  A    between atoms: _228  and  _231
REMARK   91  A    between atoms: _231  and  _232
REMARK   92  A    between atoms: _235  and  _237
REMARK   93  A    between atoms: _237  and  _238
REMARK   94  A    between atoms: _237  and  _240
REMARK   95  A    between atoms: _240  and  _241
REMARK   96  A    between atoms: _246  and  _248
REMARK   97  A    between atoms: _248  and  _249
REMARK   98  A    between atoms: _248  and  _251
REMARK   99  A    between atoms: _251  and  _252
REMARK  100  A    between atoms: _257  and  _259
REMARK  101  A    between atoms: _259  and  _260
REMARK  102  A    between atoms: _259  and  _262
REMARK  103  A    between atoms: _262  and  _263
REMARK  104  A    between atoms: _266  and  _268
REMARK  105  A    between atoms: _268  and  _269
REMARK  106  A    between atoms: _268  and  _271
REMARK  107  A    between atoms: _274  and  _276
REMARK  108  A    between atoms: _276  and  _277
REMARK  109  A    between atoms: _276  and  _279
REMARK  110  A    between atoms: _279  and  _280
REMARK  111  A    between atoms: _284  and  _285
REMARK  112  A    between atoms: _290  and  _292
REMARK  113  A    between atoms: _292  and  _293
REMARK  114  A    between atoms: _292  and  _295
REMARK  115  A    between atoms: _295  and  _296
REMARK  116  A    between atoms: _296  and  _297
REMARK  117  A    between atoms: _300  and  _302
REMARK  118  A    between atoms: _302  and  _303
REMARK  119  A    between atoms: _306  and  _308
REMARK  120  A    between atoms: _308  and  _309
REMARK  121  A    between atoms: _308  and  _311
REMARK  122  A    between atoms: _311  and  _312
REMARK  123  A    between atoms: _315  and  _317
REMARK  124  A    between atoms: _317  and  _318
REMARK  125  A    between atoms: _317  and  _320
REMARK  126  A    between atoms: _320  and  _321
REMARK  127  A    between atoms: _321  and  _322
REMARK  128  A    between atoms: _325  and  _327
REMARK  129  A    between atoms: _327  and  _328
REMARK  130  A    between atoms: _327  and  _330
REMARK  131  A    between atoms: _330  and  _331
REMARK  132  A    between atoms: _336  and  _338
REMARK  133  A    between atoms: _338  and  _339
REMARK  134  A    between atoms: _341  and  _343
REMARK  135  A    between atoms: _343  and  _344
REMARK  136  A    between atoms: _343  and  _346
REMARK  137  A    between atoms: _349  and  _351
REMARK  138  A    between atoms: _351  and  _352
REMARK  139  A    between atoms: _355  and  _357
REMARK  140  A    between atoms: _357  and  _358
REMARK  141  A    between atoms: _357  and  _360
REMARK  142  A    between atoms: _360  and  _361
REMARK  143  A    between atoms: _366  and  _368
REMARK  144  A    between atoms: _368  and  _369
REMARK  145  A    between atoms: _368  and  _371
REMARK  146  A    between atoms: _371  and  _372
REMARK  147  A    between atoms: _372  and  _373
REMARK  148  A    between atoms: _373  and  _374
REMARK  149  A    between atoms: _374  and  _375
REMARK  150  A    between atoms: _379  and  _381
REMARK  151  A    between atoms: _381  and  _382
REMARK  152  A    between atoms: _381  and  _384
REMARK  153  A    between atoms: _384  and  _385
REMARK  154  A    between atoms: _388  and  _390
REMARK  155  A    between atoms: _390  and  _391
REMARK  156  A    between atoms: _390  and  _393
REMARK  157  A    between atoms: _393  and  _394
REMARK  158  A    between atoms: _399  and  _401
REMARK  159  A    between atoms: _401  and  _402
REMARK  160  A    between atoms: _404  and  _406
REMARK  161  A    between atoms: _406  and  _407
REMARK  162  A    between atoms: _406  and  _409
REMARK  163  A    between atoms: _409  and  _410
REMARK  164  A    between atoms: _410  and  _411
REMARK  165  A    between atoms: _411  and  _412
REMARK  166  A    between atoms: _412  and  _413
REMARK  167  A    between atoms: _417  and  _419
REMARK  168  A    between atoms: _419  and  _420
REMARK  169  A    between atoms: _419  and  _422
REMARK  170  A    between atoms: _422  and  _423
REMARK  171  A    between atoms: _423  and  _424
REMARK  172  A    between atoms: _424  and  _425
REMARK  173  A    between atoms: _434  and  _436
REMARK  174  A    between atoms: _436  and  _437
REMARK  175  A    between atoms: _436  and  _439
REMARK  176  A    between atoms: _439  and  _440
REMARK  177  A    between atoms: _445  and  _447
REMARK  178  A    between atoms: _447  and  _448
REMARK  179  A    between atoms: _447  and  _450
REMARK  180  A    between atoms: _450  and  _451
REMARK  181  A    between atoms: _456  and  _457
REMARK  182  A    between atoms: _459  and  _461
REMARK  183  A    between atoms: _461  and  _462
REMARK  184  A    between atoms: _461  and  _464
REMARK  185  A    between atoms: _464  and  _465
REMARK  186  A    between atoms: _465  and  _466
REMARK  187  A    between atoms: _466  and  _467
REMARK  188  A    between atoms: _467  and  _468
REMARK  189  A    between atoms: _472  and  _474
REMARK  190  A    between atoms: _474  and  _475
REMARK  191  A    between atoms: _474  and  _477
REMARK  192  A    between atoms: _477  and  _478
REMARK  193  A    between atoms: _483  and  _484
REMARK  194  A    between atoms: _486  and  _488
REMARK  195  A    between atoms: _488  and  _489
REMARK  196  A    between atoms: _488  and  _491
REMARK  197  A    between atoms: _491  and  _492
REMARK  198  A    between atoms: _494  and  _496
REMARK  199  A    between atoms: _496  and  _497
REMARK  200  A    between atoms: _496  and  _499
REMARK  201  A    between atoms: _499  and  _500
REMARK  202  A    between atoms: _503  and  _505
REMARK  203  A    between atoms: _505  and  _506
REMARK  204  A    between atoms: _505  and  _508
REMARK  205  A    between atoms: _508  and  _509
REMARK  206  A    between atoms: _509  and  _510
REMARK  207  A    between atoms: _513  and  _515
REMARK  208  A    between atoms: _515  and  _516
REMARK  209  A    between atoms: _519  and  _521
REMARK  210  A    between atoms: _521  and  _522
REMARK  211  A    between atoms: _521  and  _524
REMARK  212  A    between atoms: _524  and  _525
REMARK  213  A    between atoms: _527  and  _529
REMARK  214  A    between atoms: _529  and  _530
REMARK  215  A    between atoms: _532  and  _534
REMARK  216  A    between atoms: _534  and  _535
REMARK  217  A    between atoms: _534  and  _537
REMARK  218  A    between atoms: _537  and  _538
REMARK  219  A    between atoms: _541  and  _543
REMARK  220  A    between atoms: _543  and  _544
REMARK  221  A    between atoms: _546  and  _548
REMARK  222  A    between atoms: _548  and  _549
REMARK  223  A    between atoms: _548  and  _551
REMARK  224  A    between atoms: _551  and  _552
REMARK  225  A    between atoms: _557  and  _559
REMARK  226  A    between atoms: _559  and  _560
REMARK  227  A    between atoms: _559  and  _562
REMARK  228  A    between atoms: _562  and  _563
REMARK  229  A    between atoms: _563  and  _564
REMARK  230  A    between atoms: _571  and  _572
REMARK  231  A    between atoms: _572  and  _588
REMARK  232  A    between atoms: _573  and  _575
REMARK  233  A    between atoms: _575  and  _576
REMARK  234  A    between atoms: _576  and  _577
REMARK  235  A    between atoms: _581  and  _583
REMARK  236  A    between atoms: _583  and  _584
REMARK  237  A    between atoms: _583  and  _591
REMARK  238  A    between atoms: _584  and  _585
REMARK  239  A    between atoms: _585  and  _586
REMARK  240  A    between atoms: _586  and  _587
REMARK  241  A    between atoms: _587  and  _588
REMARK  242  A    between atoms: _593  and  _595
REMARK  243  A    between atoms: _595  and  _596
REMARK  244  A    between atoms: _595  and  _598
REMARK  245  A    between atoms: _598  and  _599
REMARK  246  A    between atoms: _602  and  _604
REMARK  247  A    between atoms: _604  and  _605
REMARK  248  A    between atoms: _607  and  _609
REMARK  249  A    between atoms: _609  and  _610
REMARK  250  A    between atoms: _613  and  _615
REMARK  251  A    between atoms: _615  and  _616
REMARK  252  A    between atoms: _615  and  _618
REMARK  253  A    between atoms: _618  and  _619
REMARK  254  A    between atoms: _619  and  _620
REMARK  255  A    between atoms: _620  and  _621
REMARK  256  A    between atoms: _630  and  _632
REMARK  257  A    between atoms: _632  and  _633
REMARK  258  A    between atoms: _632  and  _635
REMARK  259  A    between atoms: _635  and  _636
REMARK  260  A    between atoms: _641  and  _642
REMARK                            x       y       z     vdW  Elec       q    Type
REMARK                         _______ _______ _______ _____ _____    ______ ____
ROOT
ATOM      1  C   VAL A   5      43.058  25.771  23.622  0.00  0.00    +0.241 C 
ATOM      2  N   LEU A   6      42.161  26.600  24.153  0.00  0.00    -0.297 N 
ATOM      3  H   LEU A   6      41.210  26.248  24.384  0.00  0.00    +0.150 HD
ATOM      4  O   VAL A   5      44.191  26.131  23.316  0.00  0.00    -0.273 OA
ENDROOT
BRANCH   2   5
ATOM      5  CA  LEU A   6      42.496  28.001  24.416  0.00  0.00    +0.149 C 
BRANCH   5   6
ATOM      6  C   LEU A   6      43.594  28.111  25.476  0.00  0.00    +0.244 C 
ATOM      7  O   LEU A   6      43.429  27.626  26.592  0.00  0.00    -0.273 OA
ATOM      8  N   PRO A   7      44.722  28.748  25.117  0.00  0.00    -0.272 N 
ATOM      9  CA  PRO A   7      45.913  28.793  25.977  0.00  0.00    +0.152 C 
ATOM     10  CB  PRO A   7      46.923  29.606  25.152  0.00  0.00    +0.031 C 
ATOM     11  CG  PRO A   7      46.099  30.356  24.146  0.00  0.00    +0.024 C 
ATOM     12  CD  PRO A   7      44.923  29.483  23.851  0.00  0.00    +0.094 C 
BRANCH   9  13
ATOM     13  C   PRO A   7      45.664  29.451  27.335  0.00  0.00    +0.241 C 
ATOM     14  O   PRO A   7      46.236  29.012  28.335  0.00  0.00    -0.273 OA
ATOM     15  N   GLU A   8      44.799  30.464  27.375  0.00  0.00    -0.297 N 
ATOM     16  H   GLU A   8      44.329  30.760  26.496  0.00  0.00    +0.150 HD
BRANCH  15  17
ATOM     17  CA  GLU A   8      44.490  31.174  28.622  0.00  0.00    +0.149 C 
BRANCH  17  18
ATOM     18  C   GLU A   8      43.645  30.351  29.605  0.00  0.00    +0.241 C 
ATOM     19  O   GLU A   8      43.446  30.753  30.758  0.00  0.00    -0.273 OA
ATOM     20  N   ALA A   9      43.154  29.205  29.143  0.00  0.00    -0.297 N 
ATOM     21  H   ALA A   9      43.337  28.939  28.154  0.00  0.00    +0.150 HD
BRANCH  20  22
ATOM     22  CA  ALA A   9      42.366  28.310  29.983  0.00  0.00    +0.149 C 
ATOM     23  CB  ALA A   9      41.325  27.579  29.150  0.00  0.00    +0.031 C 
BRANCH  22  24
ATOM     24  C   ALA A   9      43.231  27.306  30.744  0.00  0.00    +0.241 C 
ATOM     25  O   ALA A   9      42.764  26.711  31.723  0.00  0.00    -0.273 OA
ATOM     26  N   LEU A  10      44.477  27.117  30.299  0.00  0.00    -0.297 N 
ATOM     27  H   LEU A  10      44.840  27.722  29.535  0.00  0.00    +0.150 HD
BRANCH  26  28
ATOM     28  CA  LEU A  10      45.342  26.079  30.861  0.00  0.00    +0.149 C 
BRANCH  28  29
ATOM     29  C   LEU A  10      45.864  26.443  32.246  0.00  0.00    +0.241 C 
ATOM     30  N   GLU A  11      45.817  25.472  33.152  0.00  0.00    -0.298 N 
ATOM     31  H   GLU A  11      45.455  24.538  32.873  0.00  0.00    +0.150 HD
ATOM     32  O   LEU A  10      46.287  27.579  32.489  0.00  0.00    -0.273 OA
BRANCH  30  33
ATOM     33  CA  GLU A  11      46.257  25.678  34.523  0.00  0.00    +0.137 C 
BRANCH  33  34
ATOM     34  C   GLU A  11      47.771  25.615  34.586  0.00  0.00    +0.227 C 
ATOM     35  O   GLU A  11      48.379  24.606  34.244  0.00  0.00    -0.286 OA
ENDBRANCH  33  34
BRANCH  33  36
ATOM     36  CB  GLU A  11      45.644  24.638  35.460  0.00  0.00    +0.039 C 
BRANCH  36  37
ATOM     37  CG  GLU A  11      44.130  24.738  35.613  0.00  0.00    +0.116 C 
BRANCH  37  38
ATOM     38  CD  GLU A  11      43.629  23.950  36.800  0.00  0.00    +0.365 C 
ATOM     39  OE2 GLU A  11      43.208  24.583  37.785  0.00  0.00    -0.246 OA
ATOM     40  OE1 GLU A  11      43.662  22.700  36.759  0.00  0.00    -0.246 OA
ENDBRANCH  37  38
ENDBRANCH  36  37
ENDBRANCH  33  36
ENDBRANCH  30  33
ENDBRANCH  28  29
BRANCH  28  41
ATOM     41  CB  LEU A  10      46.515  25.743  29.928  0.00  0.00    +0.029 C 
BRANCH  41  42
ATOM     42  CG  LEU A  10      46.276  25.271  28.486  0.00  0.00    +0.002 C 
ATOM     43  CD2 LEU A  10      45.108  24.287  28.340  0.00  0.00    +0.000 C 
ATOM     44  CD1 LEU A  10      47.553  24.652  27.941  0.00  0.00    +0.000 C 
ENDBRANCH  41  42
ENDBRANCH  28  41
ENDBRANCH  26  28
ENDBRANCH  22  24
ENDBRANCH  20  22
ENDBRANCH  17  18
BRANCH  17  45
ATOM     45  CB  GLU A   8      43.816  32.522  28.338  0.00  0.00    +0.041 C 
BRANCH  45  46
ATOM     46  CG  GLU A   8      42.364  32.443  27.853  0.00  0.00    +0.116 C 
BRANCH  46  47
ATOM     47  CD  GLU A   8      42.221  32.397  26.330  0.00  0.00    +0.365 C 
ATOM     48  OE2 GLU A   8      41.184  32.873  25.819  0.00  0.00    -0.246 OA
ATOM     49  OE1 GLU A   8      43.128  31.885  25.644  0.00  0.00    -0.246 OA
ENDBRANCH  46  47
ENDBRANCH  45  46
ENDBRANCH  17  45
ENDBRANCH  15  17
ENDBRANCH   9  13
ENDBRANCH   5   6
BRANCH   5  50
ATOM     50  CB  LEU A   6      41.263  28.817  24.810  0.00  0.00    +0.029 C 
BRANCH  50  51
ATOM     51  CG  LEU A   6      40.163  29.021  23.756  0.00  0.00    +0.002 C 
ATOM     52  CD2 LEU A   6      39.087  29.980  24.273  0.00  0.00    +0.000 C 
ATOM     53  CD1 LEU A   6      40.722  29.502  22.408  0.00  0.00    +0.000 C 
ENDBRANCH  50  51
ENDBRANCH   5  50
ENDBRANCH   2   5
BRANCH   1  54
ATOM     54  CA  VAL A   5      42.627  24.320  23.390  0.00  0.00    +0.149 C 
BRANCH  54  57
ATOM     55  C   THR A   4      41.058  23.364  25.012  0.00  0.00    +0.243 C 
ATOM     56  O   THR A   4      41.950  22.808  25.658  0.00  0.00    -0.273 OA
ATOM     57  N   VAL A   5      41.279  24.064  23.901  0.00  0.00    -0.297 N 
ATOM     58  H   VAL A   5      40.464  24.443  23.377  0.00  0.00    +0.150 HD
BRANCH  55  59
ATOM     59  CA  THR A   4      39.607  23.280  25.461  0.00  0.00    +0.176 C 
BRANCH  59  61
ATOM     60  C   HIS A   3      38.058  21.658  26.447  0.00  0.00    +0.241 C 
ATOM     61  N   THR A   4      39.310  22.053  26.220  0.00  0.00    -0.295 N 
ATOM     62  H   THR A   4      40.097  21.481  26.588  0.00  0.00    +0.150 HD
ATOM     63  O   HIS A   3      37.082  22.314  26.078  0.00  0.00    -0.273 OA
BRANCH  60  64
ATOM     64  CA  HIS A   3      37.849  20.342  27.216  0.00  0.00    +0.155 C 
BRANCH  64  66
ATOM     65  C   ASN A   2      39.413  18.436  27.312  0.00  0.00    +0.241 C 
ATOM     66  N   HIS A   3      39.087  19.686  27.658  0.00  0.00    -0.297 N 
ATOM     67  H   HIS A   3      39.740  20.218  28.268  0.00  0.00    +0.150 HD
ATOM     68  O   ASN A   2      38.757  17.761  26.505  0.00  0.00    -0.273 OA
BRANCH  65  69
ATOM     69  CA  ASN A   2      40.675  17.857  27.956  0.00  0.00    +0.158 C 
BRANCH  69  72
ATOM     70  C   THR A   1      40.184  15.974  29.477  0.00  0.00    +0.241 C 
ATOM     71  O   THR A   1      40.077  16.697  30.464  0.00  0.00    -0.274 OA
ATOM     72  N   ASN A   2      40.498  16.434  28.265  0.00  0.00    -0.297 N 
ATOM     73  H   ASN A   2      40.624  15.745  27.496  0.00  0.00    +0.150 HD
BRANCH  70  74
ATOM     74  CA  THR A   1      39.940  14.471  29.591  0.00  0.00    +0.172 C 
BRANCH  74  75
ATOM     75  N   THR A   1      40.775  13.889  30.645  0.00  0.00    -0.236 NA
ATOM     76  H   THR A   1      40.574  14.145  31.633  0.00  0.00    +0.142 HD
ENDBRANCH  74  75
BRANCH  74  77
ATOM     77  CB  THR A   1      38.428  14.225  29.869  0.00  0.00    +0.135 C 
ATOM     78  CG2 THR A   1      37.551  14.799  28.750  0.00  0.00    +0.034 C 
BRANCH  77  79
ATOM     79  OG1 THR A   1      38.180  12.819  30.008  0.00  0.00    -0.383 OA
ATOM     80  HG1 THR A   1      38.439  12.355  29.172  0.00  0.00    +0.210 HD
ENDBRANCH  77  79
ENDBRANCH  74  77
ENDBRANCH  70  74
ENDBRANCH  69  72
BRANCH  69  81
ATOM     81  CB  ASN A   2      41.897  18.024  27.037  0.00  0.00    +0.114 C 
BRANCH  81  82
ATOM     82  CG  ASN A   2      42.027  19.426  26.456  0.00  0.00    +0.222 C 
ATOM     83  ND2 ASN A   2      42.771  20.292  27.136  0.00  0.00    -0.329 N 
ATOM     84 HD21 ASN A   2      43.213  20.006  28.033  0.00  0.00    +0.145 HD
ATOM     85 HD22 ASN A   2      42.911  21.256  26.771  0.00  0.00    +0.145 HD
ATOM     86  OD1 ASN A   2      41.487  19.714  25.398  0.00  0.00    -0.275 OA
ENDBRANCH  81  82
ENDBRANCH  69  81
ENDBRANCH  65  69
ENDBRANCH  64  66
BRANCH  64  87
ATOM     87  CB  HIS A   3      36.925  20.608  28.413  0.00  0.00    +0.076 C 
BRANCH  87  88
ATOM     88  CG  HIS A   3      36.530  19.378  29.166  0.00  0.00    +0.082 A 
ATOM     89  CD2 HIS A   3      37.093  18.771  30.238  0.00  0.00    +0.115 A 
ATOM     90  NE2 HIS A   3      36.324  17.671  30.530  0.00  0.00    -0.221 NA
ATOM     91  CE1 HIS A   3      35.322  17.605  29.671  0.00  0.00    +0.199 A 
ATOM     92  ND1 HIS A   3      35.423  18.624  28.836  0.00  0.00    -0.227 NA
ENDBRANCH  87  88
ENDBRANCH  64  87
ENDBRANCH  60  64
ENDBRANCH  59  61
BRANCH  59  93
ATOM     93  CB  THR A   4      39.244  24.587  26.236  0.00  0.00    +0.137 C 
ATOM     94  CG2 THR A   4      40.109  24.751  27.468  0.00  0.00    +0.034 C 
BRANCH  93  95
ATOM     95  OG1 THR A   4      39.425  25.723  25.377  0.00  0.00    -0.382 OA
ATOM     96  HG1 THR A   4      38.836  25.635  24.586  0.00  0.00    +0.210 HD
ENDBRANCH  93  95
ENDBRANCH  59  93
ENDBRANCH  55  59
ENDBRANCH  54  57
BRANCH  54  97
ATOM     97  CB  VAL A   5      42.763  23.985  21.879  0.00  0.00    +0.027 C 
ATOM     98  CG2 VAL A   5      42.472  22.502  21.619  0.00  0.00    +0.002 C 
ATOM     99  CG1 VAL A   5      41.859  24.895  21.033  0.00  0.00    +0.002 C 
ENDBRANCH  54  97
ENDBRANCH   1  54
TORSDOF 40
REMARK  Name = ../refined-set-2016/3g2l/3g2l_pocket.pdb
REMARK  260 active torsions:
REMARK  status: ('A' for Active; 'I' for Inactive)
REMARK    1  A    between atoms: _1  and  _3
REMARK    2  A    between atoms: _3  and  _4
REMARK    3  A    between atoms: _3  and  _6
REMARK    4  A    between atoms: _6  and  _7
REMARK    5  A    between atoms: _12  and  _13
REMARK    6  A    between atoms: _15  and  _17
REMARK    7  A    between atoms: _17  and  _18
REMARK    8  A    between atoms: _17  and  _20
REMARK    9  A    between atoms: _20  and  _21
REMARK   10  A    between atoms: _21  and  _22
REMARK   11  A    between atoms: _25  and  _27
REMARK   12  A    between atoms: _27  and  _28
REMARK   13  A    between atoms: _27  and  _30
REMARK   14  A    between atoms: _30  and  _31
REMARK   15  A    between atoms: _36  and  _38
REMARK   16  A    between atoms: _38  and  _39
REMARK   17  A    between atoms: _41  and  _43
REMARK   18  A    between atoms: _43  and  _44
REMARK   19  A    between atoms: _46  and  _48
REMARK   20  A    between atoms: _48  and  _49
REMARK   21  A    between atoms: _48  and  _51
REMARK   22  A    between atoms: _51  and  _52
REMARK   23  A    between atoms: _55  and  _57
REMARK   24  A    between atoms: _57  and  _58
REMARK   25  A    between atoms: _60  and  _62
REMARK   26  A    between atoms: _62  and  _63
REMARK   27  A    between atoms: _62  and  _65
REMARK   28  A    between atoms: _65  and  _66
REMARK   29  A    between atoms: _66  and  _67
REMARK   30  A    between atoms: _67  and  _68
REMARK   31  A    between atoms: _77  and  _79
REMARK   32  A    between atoms: _79  and  _80
REMARK   33  A    between atoms: _79  and  _82
REMARK   34  A    between atoms: _82  and  _83
REMARK   35  A    between atoms: _86  and  _88
REMARK   36  A    between atoms: _88  and  _89
REMARK   37  A    between atoms: _92  and  _94
REMARK   38  A    between atoms: _94  and  _95
REMARK   39  A    between atoms: _94  and  _97
REMARK   40  A    between atoms: _97  and  _98
REMARK   41  A    between atoms: _104  and  _106
REMARK   42  A    between atoms: _106  and  _107
REMARK   43  A    between atoms: _106  and  _109
REMARK   44  A    between atoms: _109  and  _110
REMARK   45  A    between atoms: _115  and  _117
REMARK   46  A    between atoms: _117  and  _118
REMARK   47  A    between atoms: _117  and  _120
REMARK   48  A    between atoms: _120  and  _121
REMARK   49  A    between atoms: _124  and  _126
REMARK   50  A    between atoms: _126  and  _127
REMARK   51  A    between atoms: _126  and  _129
REMARK   52  A    between atoms: _129  and  _130
REMARK   53  A    between atoms: _135  and  _137
REMARK   54  A    between atoms: _137  and  _138
REMARK   55  A    between atoms: _137  and  _140
REMARK   56  A    between atoms: _140  and  _141
REMARK   57  A    between atoms: _147  and  _149
REMARK   58  A    between atoms: _149  and  _150
REMARK   59  A    between atoms: _149  and  _152
REMARK   60  A    between atoms: _152  and  _153
REMARK   61  A    between atoms: _159  and  _161
REMARK   62  A    between atoms: _161  and  _162
REMARK   63  A    between atoms: _161  and  _164
REMARK   64  A    between atoms: _164  and  _165
REMARK   65  A    between atoms: _165  and  _166
REMARK   66  A    between atoms: _169  and  _171
REMARK   67  A    between atoms: _171  and  _172
REMARK   68  A    between atoms: _171  and  _174
REMARK   69  A    between atoms: _174  and  _175
REMARK   70  A    between atoms: _175  and  _176
REMARK   71  A    between atoms: _176  and  _177
REMARK   72  A    between atoms: _186  and  _188
REMARK   73  A    between atoms: _188  and  _189
REMARK   74  A    between atoms: _188  and  _191
REMARK   75  A    between atoms: _191  and  _192
REMARK   76  A    between atoms: _197  and  _199
REMARK   77  A    between atoms: _199  and  _200
REMARK   78  A    between atoms: _199  and  _202
REMARK   79  A    between atoms: _202  and  _203
REMARK   80  A    between atoms: _206  and  _208
REMARK   81  A    between atoms: _208  and  _209
REMARK   82  A    between atoms: _208  and  _211
REMARK   83  A    between atoms: _211  and  _212
REMARK   84  A    between atoms: _215  and  _217
REMARK   85  A    between atoms: _217  and  _218
REMARK   86  A    between atoms: _217  and  _220
REMARK   87  A    between atoms: _220  and  _221
REMARK   88  A    between atoms: _226  and  _228
REMARK   89  A    between atoms: _228  and  _229
REMARK   90  A    between atoms: _228  and  _231
REMARK   91  A    between atoms: _231  and  _232
REMARK   92  A    between atoms: _235  and  _237
REMARK   93  A    between atoms: _237  and  _238
REMARK   94  A    between atoms: _237  and  _240
REMARK   95  A    between atoms: _240  and  _241
REMARK   96  A    between atoms: _246  and  _248
REMARK   97  A    between atoms: _248  and  _249
REMARK   98  A    between atoms: _248  and  _251
REMARK   99  A    between atoms: _251  and  _252
REMARK  100  A    between atoms: _257  and  _259
REMARK  101  A    between atoms: _259  and  _260
REMARK  102  A    between atoms: _259  and  _262
REMARK  103  A    between atoms: _262  and  _263
REMARK  104  A    between atoms: _266  and  _268
REMARK  105  A    between atoms: _268  and  _269
REMARK  106  A    between atoms: _268  and  _271
REMARK  107  A    between atoms: _274  and  _276
REMARK  108  A    between atoms: _276  and  _277
REMARK  109  A    between atoms: _276  and  _279
REMARK  110  A    between atoms: _279  and  _280
REMARK  111  A    between atoms: _284  and  _285
REMARK  112  A    between atoms: _290  and  _292
REMARK  113  A    between atoms: _292  and  _293
REMARK  114  A    between atoms: _292  and  _295
REMARK  115  A    between atoms: _295  and  _296
REMARK  116  A    between atoms: _296  and  _297
REMARK  117  A    between atoms: _300  and  _302
REMARK  118  A    between atoms: _302  and  _303
REMARK  119  A    between atoms: _306  and  _308
REMARK  120  A    between atoms: _308  and  _309
REMARK  121  A    between atoms: _308  and  _311
REMARK  122  A    between atoms: _311  and  _312
REMARK  123  A    between atoms: _315  and  _317
REMARK  124  A    between atoms: _317  and  _318
REMARK  125  A    between atoms: _317  and  _320
REMARK  126  A    between atoms: _320  and  _321
REMARK  127  A    between atoms: _321  and  _322
REMARK  128  A    between atoms: _325  and  _327
REMARK  129  A    between atoms: _327  and  _328
REMARK  130  A    between atoms: _327  and  _330
REMARK  131  A    between atoms: _330  and  _331
REMARK  132  A    between atoms: _336  and  _338
REMARK  133  A    between atoms: _338  and  _339
REMARK  134  A    between atoms: _341  and  _343
REMARK  135  A    between atoms: _343  and  _344
REMARK  136  A    between atoms: _343  and  _346
REMARK  137  A    between atoms: _349  and  _351
REMARK  138  A    between atoms: _351  and  _352
REMARK  139  A    between atoms: _355  and  _357
REMARK  140  A    between atoms: _357  and  _358
REMARK  141  A    between atoms: _357  and  _360
REMARK  142  A    between atoms: _360  and  _361
REMARK  143  A    between atoms: _366  and  _368
REMARK  144  A    between atoms: _368  and  _369
REMARK  145  A    between atoms: _368  and  _371
REMARK  146  A    between atoms: _371  and  _372
REMARK  147  A    between atoms: _372  and  _373
REMARK  148  A    between atoms: _373  and  _374
REMARK  149  A    between atoms: _374  and  _375
REMARK  150  A    between atoms: _379  and  _381
REMARK  151  A    between atoms: _381  and  _382
REMARK  152  A    between atoms: _381  and  _384
REMARK  153  A    between atoms: _384  and  _385
REMARK  154  A    between atoms: _388  and  _390
REMARK  155  A    between atoms: _390  and  _391
REMARK  156  A    between atoms: _390  and  _393
REMARK  157  A    between atoms: _393  and  _394
REMARK  158  A    between atoms: _399  and  _401
REMARK  159  A    between atoms: _401  and  _402
REMARK  160  A    between atoms: _404  and  _406
REMARK  161  A    between atoms: _406  and  _407
REMARK  162  A    between atoms: _406  and  _409
REMARK  163  A    between atoms: _409  and  _410
REMARK  164  A    between atoms: _410  and  _411
REMARK  165  A    between atoms: _411  and  _412
REMARK  166  A    between atoms: _412  and  _413
REMARK  167  A    between atoms: _417  and  _419
REMARK  168  A    between atoms: _419  and  _420
REMARK  169  A    between atoms: _419  and  _422
REMARK  170  A    between atoms: _422  and  _423
REMARK  171  A    between atoms: _423  and  _424
REMARK  172  A    between atoms: _424  and  _425
REMARK  173  A    between atoms: _434  and  _436
REMARK  174  A    between atoms: _436  and  _437
REMARK  175  A    between atoms: _436  and  _439
REMARK  176  A    between atoms: _439  and  _440
REMARK  177  A    between atoms: _445  and  _447
REMARK  178  A    between atoms: _447  and  _448
REMARK  179  A    between atoms: _447  and  _450
REMARK  180  A    between atoms: _450  and  _451
REMARK  181  A    between atoms: _456  and  _457
REMARK  182  A    between atoms: _459  and  _461
REMARK  183  A    between atoms: _461  and  _462
REMARK  184  A    between atoms: _461  and  _464
REMARK  185  A    between atoms: _464  and  _465
REMARK  186  A    between atoms: _465  and  _466
REMARK  187  A    between atoms: _466  and  _467
REMARK  188  A    between atoms: _467  and  _468
REMARK  189  A    between atoms: _472  and  _474
REMARK  190  A    between atoms: _474  and  _475
REMARK  191  A    between atoms: _474  and  _477
REMARK  192  A    between atoms: _477  and  _478
REMARK  193  A    between atoms: _483  and  _484
REMARK  194  A    between atoms: _486  and  _488
REMARK  195  A    between atoms: _488  and  _489
REMARK  196  A    between atoms: _488  and  _491
REMARK  197  A    between atoms: _491  and  _492
REMARK  198  A    between atoms: _494  and  _496
REMARK  199  A    between atoms: _496  and  _497
REMARK  200  A    between atoms: _496  and  _499
REMARK  201  A    between atoms: _499  and  _500
REMARK  202  A    between atoms: _503  and  _505
REMARK  203  A    between atoms: _505  and  _506
REMARK  204  A    between atoms: _505  and  _508
REMARK  205  A    between atoms: _508  and  _509
REMARK  206  A    between atoms: _509  and  _510
REMARK  207  A    between atoms: _513  and  _515
REMARK  208  A    between atoms: _515  and  _516
REMARK  209  A    between atoms: _519  and  _521
REMARK  210  A    between atoms: _521  and  _522
REMARK  211  A    between atoms: _521  and  _524
REMARK  212  A    between atoms: _524  and  _525
REMARK  213  A    between atoms: _527  and  _529
REMARK  214  A    between atoms: _529  and  _530
REMARK  215  A    between atoms: _532  and  _534
REMARK  216  A    between atoms: _534  and  _535
REMARK  217  A    between atoms: _534  and  _537
REMARK  218  A    between atoms: _537  and  _538
REMARK  219  A    between atoms: _541  and  _543
REMARK  220  A    between atoms: _543  and  _544
REMARK  221  A    between atoms: _546  and  _548
REMARK  222  A    between atoms: _548  and  _549
REMARK  223  A    between atoms: _548  and  _551
REMARK  224  A    between atoms: _551  and  _552
REMARK  225  A    between atoms: _557  and  _559
REMARK  226  A    between atoms: _559  and  _560
REMARK  227  A    between atoms: _559  and  _562
REMARK  228  A    between atoms: _562  and  _563
REMARK  229  A    between atoms: _563  and  _564
REMARK  230  A    between atoms: _571  and  _572
REMARK  231  A    between atoms: _572  and  _588
REMARK  232  A    between atoms: _573  and  _575
REMARK  233  A    between atoms: _575  and  _576
REMARK  234  A    between atoms: _576  and  _577
REMARK  235  A    between atoms: _581  and  _583
REMARK  236  A    between atoms: _583  and  _584
REMARK  237  A    between atoms: _583  and  _591
REMARK  238  A    between atoms: _584  and  _585
REMARK  239  A    between atoms: _585  and  _586
REMARK  240  A    between atoms: _586  and  _587
REMARK  241  A    between atoms: _587  and  _588
REMARK  242  A    between atoms: _593  and  _595
REMARK  243  A    between atoms: _595  and  _596
REMARK  244  A    between atoms: _595  and  _598
REMARK  245  A    between atoms: _598  and  _599
REMARK  246  A    between atoms: _602  and  _604
REMARK  247  A    between atoms: _604  and  _605
REMARK  248  A    between atoms: _607  and  _609
REMARK  249  A    between atoms: _609  and  _610
REMARK  250  A    between atoms: _613  and  _615
REMARK  251  A    between atoms: _615  and  _616
REMARK  252  A    between atoms: _615  and  _618
REMARK  253  A    between atoms: _618  and  _619
REMARK  254  A    between atoms: _619  and  _620
REMARK  255  A    between atoms: _620  and  _621
REMARK  256  A    between atoms: _630  and  _632
REMARK  257  A    between atoms: _632  and  _633
REMARK  258  A    between atoms: _632  and  _635
REMARK  259  A    between atoms: _635  and  _636
REMARK  260  A    between atoms: _641  and  _642
REMARK                            x       y       z     vdW  Elec       q    Type
REMARK                         _______ _______ _______ _____ _____    ______ ____
ROOT
ATOM      1  C   GLY A   2      37.966  14.553  23.491  0.00  0.00    +0.243 C 
ATOM      2  O   GLY A   2      37.610  13.387  23.688  0.00  0.00    -0.273 OA
ATOM      3  N   VAL A   3      37.109  15.530  23.228  0.00  0.00    -0.297 N 
ATOM      4  H   VAL A   3      37.468  16.431  22.853  0.00  0.00    +0.150 HD
ENDROOT
BRANCH   1   5
ATOM      5  CA  GLY A   2      39.438  14.946  23.500  0.00  0.00    +0.176 C 
BRANCH   5   8
ATOM      6  C   ASN A   1      40.530  13.486  25.111  0.00  0.00    +0.239 C 
ATOM      7  O   ASN A   1      40.429  14.281  26.039  0.00  0.00    -0.274 OA
ATOM      8  N   GLY A   2      40.242  13.789  23.852  0.00  0.00    -0.296 N 
ATOM      9  H   GLY A   2      40.604  13.178  23.092  0.00  0.00    +0.150 HD
BRANCH   6  10
ATOM     10  CA  ASN A   1      41.036  12.069  25.338  0.00  0.00    +0.154 C 
BRANCH  10  11
ATOM     11  N   ASN A   1      42.054  11.945  26.367  0.00  0.00    -0.238 NA
ATOM     12  H   ASN A   1      41.895  12.351  27.311  0.00  0.00    +0.142 HD
ENDBRANCH  10  11
BRANCH  10  13
ATOM     13  CB  ASN A   1      39.870  11.085  25.574  0.00  0.00    +0.111 C 
BRANCH  13  14
ATOM     14  CG  ASN A   1      38.906  11.553  26.656  0.00  0.00    +0.221 C 
ATOM     15  OD1 ASN A   1      39.167  11.403  27.853  0.00  0.00    -0.275 OA
ATOM     16  ND2 ASN A   1      37.786  12.126  26.235  0.00  0.00    -0.329 N 
ATOM     17 HD21 ASN A   1      37.087  12.469  26.924  0.00  0.00    +0.145 HD
ATOM     18 HD22 ASN A   1      37.607  12.232  25.216  0.00  0.00    +0.145 HD
ENDBRANCH  13  14
ENDBRANCH  10  13
ENDBRANCH   6  10
ENDBRANCH   5   8
ENDBRANCH   1   5
BRANCH   3  19
ATOM     19  CA  VAL A   3      35.673  15.373  23.451  0.00  0.00    +0.149 C 
BRANCH  19  20
ATOM     20  C   VAL A   3      34.833  15.446  22.172  0.00  0.00    +0.241 C 
ATOM     21  O   VAL A   3      33.607  15.369  22.219  0.00  0.00    -0.273 OA
ATOM     22  N   ALA A   4      35.506  15.599  21.039  0.00  0.00    -0.298 N 
ATOM     23  H   ALA A   4      36.514  15.850  21.090  0.00  0.00    +0.150 HD
BRANCH  22  24
ATOM     24  CA  ALA A   4      34.894  15.431  19.722  0.00  0.00    +0.137 C 
ATOM     25  CB  ALA A   4      34.118  16.681  19.292  0.00  0.00    +0.030 C 
BRANCH  24  26
ATOM     26  C   ALA A   4      36.029  15.135  18.757  0.00  0.00    +0.227 C 
ATOM     27  O   ALA A   4      37.174  15.526  19.007  0.00  0.00    -0.286 OA
ENDBRANCH  24  26
ENDBRANCH  22  24
ENDBRANCH  19  20
BRANCH  19  28
ATOM     28  CB  VAL A   3      35.167  16.363  24.534  0.00  0.00    +0.027 C 
ATOM     29  CG2 VAL A   3      35.735  15.968  25.904  0.00  0.00    +0.002 C 
ATOM     30  CG1 VAL A   3      35.530  17.802  24.183  0.00  0.00    +0.002 C 
ENDBRANCH  19  28
ENDBRANCH   3  19
TORSDOF 11
REMARK  Name = ../refined-set-2016/3g2l/3g2l_pocket.pdb
REMARK  260 active torsions:
REMARK  status: ('A' for Active; 'I' for Inactive)
REMARK    1  A    between atoms: _1  and  _3
REMARK    2  A    between atoms: _3  and  _4
REMARK    3  A    between atoms: _3  and  _6
REMARK    4  A    between atoms: _6  and  _7
REMARK    5  A    between atoms: _12  and  _13
REMARK    6  A    between atoms: _15  and  _17
REMARK    7  A    between atoms: _17  and  _18
REMARK    8  A    between atoms: _17  and  _20
REMARK    9  A    between atoms: _20  and  _21
REMARK   10  A    between atoms: _21  and  _22
REMARK   11  A    between atoms: _25  and  _27
REMARK   12  A    between atoms: _27  and  _28
REMARK   13  A    between atoms: _27  and  _30
REMARK   14  A    between atoms: _30  and  _31
REMARK   15  A    between atoms: _36  and  _38
REMARK   16  A    between atoms: _38  and  _39
REMARK   17  A    between atoms: _41  and  _43
REMARK   18  A    between atoms: _43  and  _44
REMARK   19  A    between atoms: _46  and  _48
REMARK   20  A    between atoms: _48  and  _49
REMARK   21  A    between atoms: _48  and  _51
REMARK   22  A    between atoms: _51  and  _52
REMARK   23  A    between atoms: _55  and  _57
REMARK   24  A    between atoms: _57  and  _58
REMARK   25  A    between atoms: _60  and  _62
REMARK   26  A    between atoms: _62  and  _63
REMARK   27  A    between atoms: _62  and  _65
REMARK   28  A    between atoms: _65  and  _66
REMARK   29  A    between atoms: _66  and  _67
REMARK   30  A    between atoms: _67  and  _68
REMARK   31  A    between atoms: _77  and  _79
REMARK   32  A    between atoms: _79  and  _80
REMARK   33  A    between atoms: _79  and  _82
REMARK   34  A    between atoms: _82  and  _83
REMARK   35  A    between atoms: _86  and  _88
REMARK   36  A    between atoms: _88  and  _89
REMARK   37  A    between atoms: _92  and  _94
REMARK   38  A    between atoms: _94  and  _95
REMARK   39  A    between atoms: _94  and  _97
REMARK   40  A    between atoms: _97  and  _98
REMARK   41  A    between atoms: _104  and  _106
REMARK   42  A    between atoms: _106  and  _107
REMARK   43  A    between atoms: _106  and  _109
REMARK   44  A    between atoms: _109  and  _110
REMARK   45  A    between atoms: _115  and  _117
REMARK   46  A    between atoms: _117  and  _118
REMARK   47  A    between atoms: _117  and  _120
REMARK   48  A    between atoms: _120  and  _121
REMARK   49  A    between atoms: _124  and  _126
REMARK   50  A    between atoms: _126  and  _127
REMARK   51  A    between atoms: _126  and  _129
REMARK   52  A    between atoms: _129  and  _130
REMARK   53  A    between atoms: _135  and  _137
REMARK   54  A    between atoms: _137  and  _138
REMARK   55  A    between atoms: _137  and  _140
REMARK   56  A    between atoms: _140  and  _141
REMARK   57  A    between atoms: _147  and  _149
REMARK   58  A    between atoms: _149  and  _150
REMARK   59  A    between atoms: _149  and  _152
REMARK   60  A    between atoms: _152  and  _153
REMARK   61  A    between atoms: _159  and  _161
REMARK   62  A    between atoms: _161  and  _162
REMARK   63  A    between atoms: _161  and  _164
REMARK   64  A    between atoms: _164  and  _165
REMARK   65  A    between atoms: _165  and  _166
REMARK   66  A    between atoms: _169  and  _171
REMARK   67  A    between atoms: _171  and  _172
REMARK   68  A    between atoms: _171  and  _174
REMARK   69  A    between atoms: _174  and  _175
REMARK   70  A    between atoms: _175  and  _176
REMARK   71  A    between atoms: _176  and  _177
REMARK   72  A    between atoms: _186  and  _188
REMARK   73  A    between atoms: _188  and  _189
REMARK   74  A    between atoms: _188  and  _191
REMARK   75  A    between atoms: _191  and  _192
REMARK   76  A    between atoms: _197  and  _199
REMARK   77  A    between atoms: _199  and  _200
REMARK   78  A    between atoms: _199  and  _202
REMARK   79  A    between atoms: _202  and  _203
REMARK   80  A    between atoms: _206  and  _208
REMARK   81  A    between atoms: _208  and  _209
REMARK   82  A    between atoms: _208  and  _211
REMARK   83  A    between atoms: _211  and  _212
REMARK   84  A    between atoms: _215  and  _217
REMARK   85  A    between atoms: _217  and  _218
REMARK   86  A    between atoms: _217  and  _220
REMARK   87  A    between atoms: _220  and  _221
REMARK   88  A    between atoms: _226  and  _228
REMARK   89  A    between atoms: _228  and  _229
REMARK   90  A    between atoms: _228  and  _231
REMARK   91  A    between atoms: _231  and  _232
REMARK   92  A    between atoms: _235  and  _237
REMARK   93  A    between atoms: _237  and  _238
REMARK   94  A    between atoms: _237  and  _240
REMARK   95  A    between atoms: _240  and  _241
REMARK   96  A    between atoms: _246  and  _248
REMARK   97  A    between atoms: _248  and  _249
REMARK   98  A    between atoms: _248  and  _251
REMARK   99  A    between atoms: _251  and  _252
REMARK  100  A    between atoms: _257  and  _259
REMARK  101  A    between atoms: _259  and  _260
REMARK  102  A    between atoms: _259  and  _262
REMARK  103  A    between atoms: _262  and  _263
REMARK  104  A    between atoms: _266  and  _268
REMARK  105  A    between atoms: _268  and  _269
REMARK  106  A    between atoms: _268  and  _271
REMARK  107  A    between atoms: _274  and  _276
REMARK  108  A    between atoms: _276  and  _277
REMARK  109  A    between atoms: _276  and  _279
REMARK  110  A    between atoms: _279  and  _280
REMARK  111  A    between atoms: _284  and  _285
REMARK  112  A    between atoms: _290  and  _292
REMARK  113  A    between atoms: _292  and  _293
REMARK  114  A    between atoms: _292  and  _295
REMARK  115  A    between atoms: _295  and  _296
REMARK  116  A    between atoms: _296  and  _297
REMARK  117  A    between atoms: _300  and  _302
REMARK  118  A    between atoms: _302  and  _303
REMARK  119  A    between atoms: _306  and  _308
REMARK  120  A    between atoms: _308  and  _309
REMARK  121  A    between atoms: _308  and  _311
REMARK  122  A    between atoms: _311  and  _312
REMARK  123  A    between atoms: _315  and  _317
REMARK  124  A    between atoms: _317  and  _318
REMARK  125  A    between atoms: _317  and  _320
REMARK  126  A    between atoms: _320  and  _321
REMARK  127  A    between atoms: _321  and  _322
REMARK  128  A    between atoms: _325  and  _327
REMARK  129  A    between atoms: _327  and  _328
REMARK  130  A    between atoms: _327  and  _330
REMARK  131  A    between atoms: _330  and  _331
REMARK  132  A    between atoms: _336  and  _338
REMARK  133  A    between atoms: _338  and  _339
REMARK  134  A    between atoms: _341  and  _343
REMARK  135  A    between atoms: _343  and  _344
REMARK  136  A    between atoms: _343  and  _346
REMARK  137  A    between atoms: _349  and  _351
REMARK  138  A    between atoms: _351  and  _352
REMARK  139  A    between atoms: _355  and  _357
REMARK  140  A    between atoms: _357  and  _358
REMARK  141  A    between atoms: _357  and  _360
REMARK  142  A    between atoms: _360  and  _361
REMARK  143  A    between atoms: _366  and  _368
REMARK  144  A    between atoms: _368  and  _369
REMARK  145  A    between atoms: _368  and  _371
REMARK  146  A    between atoms: _371  and  _372
REMARK  147  A    between atoms: _372  and  _373
REMARK  148  A    between atoms: _373  and  _374
REMARK  149  A    between atoms: _374  and  _375
REMARK  150  A    between atoms: _379  and  _381
REMARK  151  A    between atoms: _381  and  _382
REMARK  152  A    between atoms: _381  and  _384
REMARK  153  A    between atoms: _384  and  _385
REMARK  154  A    between atoms: _388  and  _390
REMARK  155  A    between atoms: _390  and  _391
REMARK  156  A    between atoms: _390  and  _393
REMARK  157  A    between atoms: _393  and  _394
REMARK  158  A    between atoms: _399  and  _401
REMARK  159  A    between atoms: _401  and  _402
REMARK  160  A    between atoms: _404  and  _406
REMARK  161  A    between atoms: _406  and  _407
REMARK  162  A    between atoms: _406  and  _409
REMARK  163  A    between atoms: _409  and  _410
REMARK  164  A    between atoms: _410  and  _411
REMARK  165  A    between atoms: _411  and  _412
REMARK  166  A    between atoms: _412  and  _413
REMARK  167  A    between atoms: _417  and  _419
REMARK  168  A    between atoms: _419  and  _420
REMARK  169  A    between atoms: _419  and  _422
REMARK  170  A    between atoms: _422  and  _423
REMARK  171  A    between atoms: _423  and  _424
REMARK  172  A    between atoms: _424  and  _425
REMARK  173  A    between atoms: _434  and  _436
REMARK  174  A    between atoms: _436  and  _437
REMARK  175  A    between atoms: _436  and  _439
REMARK  176  A    between atoms: _439  and  _440
REMARK  177  A    between atoms: _445  and  _447
REMARK  178  A    between atoms: _447  and  _448
REMARK  179  A    between atoms: _447  and  _450
REMARK  180  A    between atoms: _450  and  _451
REMARK  181  A    between atoms: _456  and  _457
REMARK  182  A    between atoms: _459  and  _461
REMARK  183  A    between atoms: _461  and  _462
REMARK  184  A    between atoms: _461  and  _464
REMARK  185  A    between atoms: _464  and  _465
REMARK  186  A    between atoms: _465  and  _466
REMARK  187  A    between atoms: _466  and  _467
REMARK  188  A    between atoms: _467  and  _468
REMARK  189  A    between atoms: _472  and  _474
REMARK  190  A    between atoms: _474  and  _475
REMARK  191  A    between atoms: _474  and  _477
REMARK  192  A    between atoms: _477  and  _478
REMARK  193  A    between atoms: _483  and  _484
REMARK  194  A    between atoms: _486  and  _488
REMARK  195  A    between atoms: _488  and  _489
REMARK  196  A    between atoms: _488  and  _491
REMARK  197  A    between atoms: _491  and  _492
REMARK  198  A    between atoms: _494  and  _496
REMARK  199  A    between atoms: _496  and  _497
REMARK  200  A    between atoms: _496  and  _499
REMARK  201  A    between atoms: _499  and  _500
REMARK  202  A    between atoms: _503  and  _505
REMARK  203  A    between atoms: _505  and  _506
REMARK  204  A    between atoms: _505  and  _508
REMARK  205  A    between atoms: _508  and  _509
REMARK  206  A    between atoms: _509  and  _510
REMARK  207  A    between atoms: _513  and  _515
REMARK  208  A    between atoms: _515  and  _516
REMARK  209  A    between atoms: _519  and  _521
REMARK  210  A    between atoms: _521  and  _522
REMARK  211  A    between atoms: _521  and  _524
REMARK  212  A    between atoms: _524  and  _525
REMARK  213  A    between atoms: _527  and  _529
REMARK  214  A    between atoms: _529  and  _530
REMARK  215  A    between atoms: _532  and  _534
REMARK  216  A    between atoms: _534  and  _535
REMARK  217  A    between atoms: _534  and  _537
REMARK  218  A    between atoms: _537  and  _538
REMARK  219  A    between atoms: _541  and  _543
REMARK  220  A    between atoms: _543  and  _544
REMARK  221  A    between atoms: _546  and  _548
REMARK  222  A    between atoms: _548  and  _549
REMARK  223  A    between atoms: _548  and  _551
REMARK  224  A    between atoms: _551  and  _552
REMARK  225  A    between atoms: _557  and  _559
REMARK  226  A    between atoms: _559  and  _560
REMARK  227  A    between atoms: _559  and  _562
REMARK  228  A    between atoms: _562  and  _563
REMARK  229  A    between atoms: _563  and  _564
REMARK  230  A    between atoms: _571  and  _572
REMARK  231  A    between atoms: _572  and  _588
REMARK  232  A    between atoms: _573  and  _575
REMARK  233  A    between atoms: _575  and  _576
REMARK  234  A    between atoms: _576  and  _577
REMARK  235  A    between atoms: _581  and  _583
REMARK  236  A    between atoms: _583  and  _584
REMARK  237  A    between atoms: _583  and  _591
REMARK  238  A    between atoms: _584  and  _585
REMARK  239  A    between atoms: _585  and  _586
REMARK  240  A    between atoms: _586  and  _587
REMARK  241  A    between atoms: _587  and  _588
REMARK  242  A    between atoms: _593  and  _595
REMARK  243  A    between atoms: _595  and  _596
REMARK  244  A    between atoms: _595  and  _598
REMARK  245  A    between atoms: _598  and  _599
REMARK  246  A    between atoms: _602  and  _604
REMARK  247  A    between atoms: _604  and  _605
REMARK  248  A    between atoms: _607  and  _609
REMARK  249  A    between atoms: _609  and  _610
REMARK  250  A    between atoms: _613  and  _615
REMARK  251  A    between atoms: _615  and  _616
REMARK  252  A    between atoms: _615  and  _618
REMARK  253  A    between atoms: _618  and  _619
REMARK  254  A    between atoms: _619  and  _620
REMARK  255  A    between atoms: _620  and  _621
REMARK  256  A    between atoms: _630  and  _632
REMARK  257  A    between atoms: _632  and  _633
REMARK  258  A    between atoms: _632  and  _635
REMARK  259  A    between atoms: _635  and  _636
REMARK  260  A    between atoms: _641  and  _642
REMARK                            x       y       z     vdW  Elec       q    Type
REMARK                         _______ _______ _______ _____ _____    ______ ____
ROOT
ATOM      1  CB  HIS A   1      38.076  18.542  20.097  0.00  0.00    +0.072 C 
ENDROOT
BRANCH   1   2
ATOM      2  CG  HIS A   1      38.757  18.795  21.407  0.00  0.00    +0.082 A 
ATOM      3  CD2 HIS A   1      38.684  18.142  22.588  0.00  0.00    +0.115 A 
ATOM      4  NE2 HIS A   1      39.506  18.803  23.468  0.00  0.00    -0.221 NA
ATOM      5  CE1 HIS A   1      40.065  19.825  22.849  0.00  0.00    +0.199 A 
ATOM      6  ND1 HIS A   1      39.633  19.842  21.603  0.00  0.00    -0.227 NA
ENDBRANCH   1   2
BRANCH   1   7
ATOM      7  CA  HIS A   1      39.035  18.442  18.899  0.00  0.00    +0.139 C 
BRANCH   7   8
ATOM      8  N   HIS A   1      38.312  17.983  17.714  0.00  0.00    -0.239 NA
ATOM      9  H   HIS A   1      37.310  17.721  17.811  0.00  0.00    +0.142 HD
ENDBRANCH   7   8
BRANCH   7  10
ATOM     10  C   HIS A   1      40.200  17.498  19.211  0.00  0.00    +0.224 C 
ATOM     11  O   HIS A   1      41.322  17.946  19.465  0.00  0.00    -0.287 OA
ENDBRANCH   7  10
ENDBRANCH   1   7
TORSDOF 4
REMARK  Name = ../refined-set-2016/3g2l/3g2l_pocket.pdb
REMARK  260 active torsions:
REMARK  status: ('A' for Active; 'I' for Inactive)
REMARK    1  A    between atoms: _1  and  _3
REMARK    2  A    between atoms: _3  and  _4
REMARK    3  A    between atoms: _3  and  _6
REMARK    4  A    between atoms: _6  and  _7
REMARK    5  A    between atoms: _12  and  _13
REMARK    6  A    between atoms: _15  and  _17
REMARK    7  A    between atoms: _17  and  _18
REMARK    8  A    between atoms: _17  and  _20
REMARK    9  A    between atoms: _20  and  _21
REMARK   10  A    between atoms: _21  and  _22
REMARK   11  A    between atoms: _25  and  _27
REMARK   12  A    between atoms: _27  and  _28
REMARK   13  A    between atoms: _27  and  _30
REMARK   14  A    between atoms: _30  and  _31
REMARK   15  A    between atoms: _36  and  _38
REMARK   16  A    between atoms: _38  and  _39
REMARK   17  A    between atoms: _41  and  _43
REMARK   18  A    between atoms: _43  and  _44
REMARK   19  A    between atoms: _46  and  _48
REMARK   20  A    between atoms: _48  and  _49
REMARK   21  A    between atoms: _48  and  _51
REMARK   22  A    between atoms: _51  and  _52
REMARK   23  A    between atoms: _55  and  _57
REMARK   24  A    between atoms: _57  and  _58
REMARK   25  A    between atoms: _60  and  _62
REMARK   26  A    between atoms: _62  and  _63
REMARK   27  A    between atoms: _62  and  _65
REMARK   28  A    between atoms: _65  and  _66
REMARK   29  A    between atoms: _66  and  _67
REMARK   30  A    between atoms: _67  and  _68
REMARK   31  A    between atoms: _77  and  _79
REMARK   32  A    between atoms: _79  and  _80
REMARK   33  A    between atoms: _79  and  _82
REMARK   34  A    between atoms: _82  and  _83
REMARK   35  A    between atoms: _86  and  _88
REMARK   36  A    between atoms: _88  and  _89
REMARK   37  A    between atoms: _92  and  _94
REMARK   38  A    between atoms: _94  and  _95
REMARK   39  A    between atoms: _94  and  _97
REMARK   40  A    between atoms: _97  and  _98
REMARK   41  A    between atoms: _104  and  _106
REMARK   42  A    between atoms: _106  and  _107
REMARK   43  A    between atoms: _106  and  _109
REMARK   44  A    between atoms: _109  and  _110
REMARK   45  A    between atoms: _115  and  _117
REMARK   46  A    between atoms: _117  and  _118
REMARK   47  A    between atoms: _117  and  _120
REMARK   48  A    between atoms: _120  and  _121
REMARK   49  A    between atoms: _124  and  _126
REMARK   50  A    between atoms: _126  and  _127
REMARK   51  A    between atoms: _126  and  _129
REMARK   52  A    between atoms: _129  and  _130
REMARK   53  A    between atoms: _135  and  _137
REMARK   54  A    between atoms: _137  and  _138
REMARK   55  A    between atoms: _137  and  _140
REMARK   56  A    between atoms: _140  and  _141
REMARK   57  A    between atoms: _147  and  _149
REMARK   58  A    between atoms: _149  and  _150
REMARK   59  A    between atoms: _149  and  _152
REMARK   60  A    between atoms: _152  and  _153
REMARK   61  A    between atoms: _159  and  _161
REMARK   62  A    between atoms: _161  and  _162
REMARK   63  A    between atoms: _161  and  _164
REMARK   64  A    between atoms: _164  and  _165
REMARK   65  A    between atoms: _165  and  _166
REMARK   66  A    between atoms: _169  and  _171
REMARK   67  A    between atoms: _171  and  _172
REMARK   68  A    between atoms: _171  and  _174
REMARK   69  A    between atoms: _174  and  _175
REMARK   70  A    between atoms: _175  and  _176
REMARK   71  A    between atoms: _176  and  _177
REMARK   72  A    between atoms: _186  and  _188
REMARK   73  A    between atoms: _188  and  _189
REMARK   74  A    between atoms: _188  and  _191
REMARK   75  A    between atoms: _191  and  _192
REMARK   76  A    between atoms: _197  and  _199
REMARK   77  A    between atoms: _199  and  _200
REMARK   78  A    between atoms: _199  and  _202
REMARK   79  A    between atoms: _202  and  _203
REMARK   80  A    between atoms: _206  and  _208
REMARK   81  A    between atoms: _208  and  _209
REMARK   82  A    between atoms: _208  and  _211
REMARK   83  A    between atoms: _211  and  _212
REMARK   84  A    between atoms: _215  and  _217
REMARK   85  A    between atoms: _217  and  _218
REMARK   86  A    between atoms: _217  and  _220
REMARK   87  A    between atoms: _220  and  _221
REMARK   88  A    between atoms: _226  and  _228
REMARK   89  A    between atoms: _228  and  _229
REMARK   90  A    between atoms: _228  and  _231
REMARK   91  A    between atoms: _231  and  _232
REMARK   92  A    between atoms: _235  and  _237
REMARK   93  A    between atoms: _237  and  _238
REMARK   94  A    between atoms: _237  and  _240
REMARK   95  A    between atoms: _240  and  _241
REMARK   96  A    between atoms: _246  and  _248
REMARK   97  A    between atoms: _248  and  _249
REMARK   98  A    between atoms: _248  and  _251
REMARK   99  A    between atoms: _251  and  _252
REMARK  100  A    between atoms: _257  and  _259
REMARK  101  A    between atoms: _259  and  _260
REMARK  102  A    between atoms: _259  and  _262
REMARK  103  A    between atoms: _262  and  _263
REMARK  104  A    between atoms: _266  and  _268
REMARK  105  A    between atoms: _268  and  _269
REMARK  106  A    between atoms: _268  and  _271
REMARK  107  A    between atoms: _274  and  _276
REMARK  108  A    between atoms: _276  and  _277
REMARK  109  A    between atoms: _276  and  _279
REMARK  110  A    between atoms: _279  and  _280
REMARK  111  A    between atoms: _284  and  _285
REMARK  112  A    between atoms: _290  and  _292
REMARK  113  A    between atoms: _292  and  _293
REMARK  114  A    between atoms: _292  and  _295
REMARK  115  A    between atoms: _295  and  _296
REMARK  116  A    between atoms: _296  and  _297
REMARK  117  A    between atoms: _300  and  _302
REMARK  118  A    between atoms: _302  and  _303
REMARK  119  A    between atoms: _306  and  _308
REMARK  120  A    between atoms: _308  and  _309
REMARK  121  A    between atoms: _308  and  _311
REMARK  122  A    between atoms: _311  and  _312
REMARK  123  A    between atoms: _315  and  _317
REMARK  124  A    between atoms: _317  and  _318
REMARK  125  A    between atoms: _317  and  _320
REMARK  126  A    between atoms: _320  and  _321
REMARK  127  A    between atoms: _321  and  _322
REMARK  128  A    between atoms: _325  and  _327
REMARK  129  A    between atoms: _327  and  _328
REMARK  130  A    between atoms: _327  and  _330
REMARK  131  A    between atoms: _330  and  _331
REMARK  132  A    between atoms: _336  and  _338
REMARK  133  A    between atoms: _338  and  _339
REMARK  134  A    between atoms: _341  and  _343
REMARK  135  A    between atoms: _343  and  _344
REMARK  136  A    between atoms: _343  and  _346
REMARK  137  A    between atoms: _349  and  _351
REMARK  138  A    between atoms: _351  and  _352
REMARK  139  A    between atoms: _355  and  _357
REMARK  140  A    between atoms: _357  and  _358
REMARK  141  A    between atoms: _357  and  _360
REMARK  142  A    between atoms: _360  and  _361
REMARK  143  A    between atoms: _366  and  _368
REMARK  144  A    between atoms: _368  and  _369
REMARK  145  A    between atoms: _368  and  _371
REMARK  146  A    between atoms: _371  and  _372
REMARK  147  A    between atoms: _372  and  _373
REMARK  148  A    between atoms: _373  and  _374
REMARK  149  A    between atoms: _374  and  _375
REMARK  150  A    between atoms: _379  and  _381
REMARK  151  A    between atoms: _381  and  _382
REMARK  152  A    between atoms: _381  and  _384
REMARK  153  A    between atoms: _384  and  _385
REMARK  154  A    between atoms: _388  and  _390
REMARK  155  A    between atoms: _390  and  _391
REMARK  156  A    between atoms: _390  and  _393
REMARK  157  A    between atoms: _393  and  _394
REMARK  158  A    between atoms: _399  and  _401
REMARK  159  A    between atoms: _401  and  _402
REMARK  160  A    between atoms: _404  and  _406
REMARK  161  A    between atoms: _406  and  _407
REMARK  162  A    between atoms: _406  and  _409
REMARK  163  A    between atoms: _409  and  _410
REMARK  164  A    between atoms: _410  and  _411
REMARK  165  A    between atoms: _411  and  _412
REMARK  166  A    between atoms: _412  and  _413
REMARK  167  A    between atoms: _417  and  _419
REMARK  168  A    between atoms: _419  and  _420
REMARK  169  A    between atoms: _419  and  _422
REMARK  170  A    between atoms: _422  and  _423
REMARK  171  A    between atoms: _423  and  _424
REMARK  172  A    between atoms: _424  and  _425
REMARK  173  A    between atoms: _434  and  _436
REMARK  174  A    between atoms: _436  and  _437
REMARK  175  A    between atoms: _436  and  _439
REMARK  176  A    between atoms: _439  and  _440
REMARK  177  A    between atoms: _445  and  _447
REMARK  178  A    between atoms: _447  and  _448
REMARK  179  A    between atoms: _447  and  _450
REMARK  180  A    between atoms: _450  and  _451
REMARK  181  A    between atoms: _456  and  _457
REMARK  182  A    between atoms: _459  and  _461
REMARK  183  A    between atoms: _461  and  _462
REMARK  184  A    between atoms: _461  and  _464
REMARK  185  A    between atoms: _464  and  _465
REMARK  186  A    between atoms: _465  and  _466
REMARK  187  A    between atoms: _466  and  _467
REMARK  188  A    between atoms: _467  and  _468
REMARK  189  A    between atoms: _472  and  _474
REMARK  190  A    between atoms: _474  and  _475
REMARK  191  A    between atoms: _474  and  _477
REMARK  192  A    between atoms: _477  and  _478
REMARK  193  A    between atoms: _483  and  _484
REMARK  194  A    between atoms: _486  and  _488
REMARK  195  A    between atoms: _488  and  _489
REMARK  196  A    between atoms: _488  and  _491
REMARK  197  A    between atoms: _491  and  _492
REMARK  198  A    between atoms: _494  and  _496
REMARK  199  A    between atoms: _496  and  _497
REMARK  200  A    between atoms: _496  and  _499
REMARK  201  A    between atoms: _499  and  _500
REMARK  202  A    between atoms: _503  and  _505
REMARK  203  A    between atoms: _505  and  _506
REMARK  204  A    between atoms: _505  and  _508
REMARK  205  A    between atoms: _508  and  _509
REMARK  206  A    between atoms: _509  and  _510
REMARK  207  A    between atoms: _513  and  _515
REMARK  208  A    between atoms: _515  and  _516
REMARK  209  A    between atoms: _519  and  _521
REMARK  210  A    between atoms: _521  and  _522
REMARK  211  A    between atoms: _521  and  _524
REMARK  212  A    between atoms: _524  and  _525
REMARK  213  A    between atoms: _527  and  _529
REMARK  214  A    between atoms: _529  and  _530
REMARK  215  A    between atoms: _532  and  _534
REMARK  216  A    between atoms: _534  and  _535
REMARK  217  A    between atoms: _534  and  _537
REMARK  218  A    between atoms: _537  and  _538
REMARK  219  A    between atoms: _541  and  _543
REMARK  220  A    between atoms: _543  and  _544
REMARK  221  A    between atoms: _546  and  _548
REMARK  222  A    between atoms: _548  and  _549
REMARK  223  A    between atoms: _548  and  _551
REMARK  224  A    between atoms: _551  and  _552
REMARK  225  A    between atoms: _557  and  _559
REMARK  226  A    between atoms: _559  and  _560
REMARK  227  A    between atoms: _559  and  _562
REMARK  228  A    between atoms: _562  and  _563
REMARK  229  A    between atoms: _563  and  _564
REMARK  230  A    between atoms: _571  and  _572
REMARK  231  A    between atoms: _572  and  _588
REMARK  232  A    between atoms: _573  and  _575
REMARK  233  A    between atoms: _575  and  _576
REMARK  234  A    between atoms: _576  and  _577
REMARK  235  A    between atoms: _581  and  _583
REMARK  236  A    between atoms: _583  and  _584
REMARK  237  A    between atoms: _583  and  _591
REMARK  238  A    between atoms: _584  and  _585
REMARK  239  A    between atoms: _585  and  _586
REMARK  240  A    between atoms: _586  and  _587
REMARK  241  A    between atoms: _587  and  _588
REMARK  242  A    between atoms: _593  and  _595
REMARK  243  A    between atoms: _595  and  _596
REMARK  244  A    between atoms: _595  and  _598
REMARK  245  A    between atoms: _598  and  _599
REMARK  246  A    between atoms: _602  and  _604
REMARK  247  A    between atoms: _604  and  _605
REMARK  248  A    between atoms: _607  and  _609
REMARK  249  A    between atoms: _609  and  _610
REMARK  250  A    between atoms: _613  and  _615
REMARK  251  A    between atoms: _615  and  _616
REMARK  252  A    between atoms: _615  and  _618
REMARK  253  A    between atoms: _618  and  _619
REMARK  254  A    between atoms: _619  and  _620
REMARK  255  A    between atoms: _620  and  _621
REMARK  256  A    between atoms: _630  and  _632
REMARK  257  A    between atoms: _632  and  _633
REMARK  258  A    between atoms: _632  and  _635
REMARK  259  A    between atoms: _635  and  _636
REMARK  260  A    between atoms: _641  and  _642
REMARK                            x       y       z     vdW  Elec       q    Type
REMARK                         _______ _______ _______ _____ _____    ______ ____
ROOT
ATOM      1  CA  THR A   2      32.781  12.342  21.447  0.00  0.00    +0.176 C 
ENDROOT
BRANCH   1   4
ATOM      2  C   LYS A   1      34.459  11.347  22.897  0.00  0.00    +0.238 C 
ATOM      3  O   LYS A   1      34.382  12.268  23.705  0.00  0.00    -0.274 OA
ATOM      4  N   THR A   2      33.746  11.305  21.778  0.00  0.00    -0.295 N 
ATOM      5  H   THR A   2      33.881  10.510  21.121  0.00  0.00    +0.150 HD
BRANCH   2   6
ATOM      6  CA  LYS A   1      35.423  10.198  23.113  0.00  0.00    +0.145 C 
BRANCH   6   7
ATOM      7  N   LYS A   1      36.719  10.620  22.589  0.00  0.00    -0.238 NA
ATOM      8  H   LYS A   1      37.044  11.591  22.773  0.00  0.00    +0.142 HD
ENDBRANCH   6   7
BRANCH   6   9
ATOM      9  CB  LYS A   1      35.511   9.826  24.597  0.00  0.00    +0.026 C 
BRANCH   9  10
ATOM     10  CG  LYS A   1      36.444   8.637  24.909  0.00  0.00    -0.000 C 
BRANCH  10  11
ATOM     11  CD  LYS A   1      35.822   7.301  24.517  0.00  0.00    -0.024 C 
BRANCH  11  12
ATOM     12  CE  LYS A   1      36.840   6.163  24.556  0.00  0.00    -0.086 C 
BRANCH  12  13
ATOM     13  NZ  LYS A   1      37.878   6.284  23.491  0.00  0.00    +0.380 N 
ATOM     14  HZ1 LYS A   1      38.394   7.179  23.612  0.00  0.00    -0.089 HD
ATOM     15  HZ2 LYS A   1      38.542   5.487  23.564  0.00  0.00    -0.089 HD
ATOM     16  HZ3 LYS A   1      37.419   6.270  22.558  0.00  0.00    -0.089 HD
ENDBRANCH  12  13
ENDBRANCH  11  12
ENDBRANCH  10  11
ENDBRANCH   9  10
ENDBRANCH   6   9
ENDBRANCH   2   6
ENDBRANCH   1   4
BRANCH   1  17
ATOM     17  C   THR A   2      31.714  12.443  22.533  0.00  0.00    +0.243 C 
ATOM     18  N   ASN A   3      31.466  13.672  22.969  0.00  0.00    -0.297 N 
ATOM     19  H   ASN A   3      31.992  14.465  22.548  0.00  0.00    +0.150 HD
ATOM     20  O   THR A   2      31.146  11.432  22.965  0.00  0.00    -0.273 OA
BRANCH  18  21
ATOM     21  CA  ASN A   3      30.488  13.959  24.013  0.00  0.00    +0.158 C 
BRANCH  21  22
ATOM     22  C   ASN A   3      29.085  13.474  23.684  0.00  0.00    +0.241 C 
ATOM     23  N   GLY A   4      28.234  13.499  24.705  0.00  0.00    -0.296 N 
ATOM     24  H   GLY A   4      28.580  13.831  25.628  0.00  0.00    +0.150 HD
ATOM     25  O   ASN A   3      28.794  13.063  22.548  0.00  0.00    -0.273 OA
BRANCH  23  26
ATOM     26  CA  GLY A   4      26.847  13.086  24.597  0.00  0.00    +0.163 C 
BRANCH  26  27
ATOM     27  C   GLY A   4      26.024  13.759  25.680  0.00  0.00    +0.229 C 
ATOM     28  O   GLY A   4      26.568  14.421  26.577  0.00  0.00    -0.286 OA
ENDBRANCH  26  27
ENDBRANCH  23  26
ENDBRANCH  21  22
BRANCH  21  29
ATOM     29  CB  ASN A   3      30.477  15.459  24.343  0.00  0.00    +0.114 C 
BRANCH  29  30
ATOM     30  CG  ASN A   3      31.617  15.868  25.277  0.00  0.00    +0.222 C 
ATOM     31  ND2 ASN A   3      32.292  14.885  25.870  0.00  0.00    -0.329 N 
ATOM     32 HD21 ASN A   3      33.067  15.109  26.526  0.00  0.00    +0.145 HD
ATOM     33 HD22 ASN A   3      32.044  13.894  25.677  0.00  0.00    +0.145 HD
ATOM     34  OD1 ASN A   3      31.872  17.059  25.472  0.00  0.00    -0.275 OA
ENDBRANCH  29  30
ENDBRANCH  21  29
ENDBRANCH  18  21
ENDBRANCH   1  17
BRANCH   1  35
ATOM     35  CB  THR A   2      32.138  12.090  20.071  0.00  0.00    +0.137 C 
ATOM     36  CG2 THR A   2      31.194  13.232  19.686  0.00  0.00    +0.034 C 
BRANCH  35  37
ATOM     37  OG1 THR A   2      33.175  11.975  19.092  0.00  0.00    -0.382 OA
ATOM     38  HG1 THR A   2      32.771  11.813  18.203  0.00  0.00    +0.210 HD
ENDBRANCH  35  37
ENDBRANCH   1  35
TORSDOF 17
REMARK  Name = ../refined-set-2016/3g2l/3g2l_pocket.pdb
REMARK  260 active torsions:
REMARK  status: ('A' for Active; 'I' for Inactive)
REMARK    1  A    between atoms: _1  and  _3
REMARK    2  A    between atoms: _3  and  _4
REMARK    3  A    between atoms: _3  and  _6
REMARK    4  A    between atoms: _6  and  _7
REMARK    5  A    between atoms: _12  and  _13
REMARK    6  A    between atoms: _15  and  _17
REMARK    7  A    between atoms: _17  and  _18
REMARK    8  A    between atoms: _17  and  _20
REMARK    9  A    between atoms: _20  and  _21
REMARK   10  A    between atoms: _21  and  _22
REMARK   11  A    between atoms: _25  and  _27
REMARK   12  A    between atoms: _27  and  _28
REMARK   13  A    between atoms: _27  and  _30
REMARK   14  A    between atoms: _30  and  _31
REMARK   15  A    between atoms: _36  and  _38
REMARK   16  A    between atoms: _38  and  _39
REMARK   17  A    between atoms: _41  and  _43
REMARK   18  A    between atoms: _43  and  _44
REMARK   19  A    between atoms: _46  and  _48
REMARK   20  A    between atoms: _48  and  _49
REMARK   21  A    between atoms: _48  and  _51
REMARK   22  A    between atoms: _51  and  _52
REMARK   23  A    between atoms: _55  and  _57
REMARK   24  A    between atoms: _57  and  _58
REMARK   25  A    between atoms: _60  and  _62
REMARK   26  A    between atoms: _62  and  _63
REMARK   27  A    between atoms: _62  and  _65
REMARK   28  A    between atoms: _65  and  _66
REMARK   29  A    between atoms: _66  and  _67
REMARK   30  A    between atoms: _67  and  _68
REMARK   31  A    between atoms: _77  and  _79
REMARK   32  A    between atoms: _79  and  _80
REMARK   33  A    between atoms: _79  and  _82
REMARK   34  A    between atoms: _82  and  _83
REMARK   35  A    between atoms: _86  and  _88
REMARK   36  A    between atoms: _88  and  _89
REMARK   37  A    between atoms: _92  and  _94
REMARK   38  A    between atoms: _94  and  _95
REMARK   39  A    between atoms: _94  and  _97
REMARK   40  A    between atoms: _97  and  _98
REMARK   41  A    between atoms: _104  and  _106
REMARK   42  A    between atoms: _106  and  _107
REMARK   43  A    between atoms: _106  and  _109
REMARK   44  A    between atoms: _109  and  _110
REMARK   45  A    between atoms: _115  and  _117
REMARK   46  A    between atoms: _117  and  _118
REMARK   47  A    between atoms: _117  and  _120
REMARK   48  A    between atoms: _120  and  _121
REMARK   49  A    between atoms: _124  and  _126
REMARK   50  A    between atoms: _126  and  _127
REMARK   51  A    between atoms: _126  and  _129
REMARK   52  A    between atoms: _129  and  _130
REMARK   53  A    between atoms: _135  and  _137
REMARK   54  A    between atoms: _137  and  _138
REMARK   55  A    between atoms: _137  and  _140
REMARK   56  A    between atoms: _140  and  _141
REMARK   57  A    between atoms: _147  and  _149
REMARK   58  A    between atoms: _149  and  _150
REMARK   59  A    between atoms: _149  and  _152
REMARK   60  A    between atoms: _152  and  _153
REMARK   61  A    between atoms: _159  and  _161
REMARK   62  A    between atoms: _161  and  _162
REMARK   63  A    between atoms: _161  and  _164
REMARK   64  A    between atoms: _164  and  _165
REMARK   65  A    between atoms: _165  and  _166
REMARK   66  A    between atoms: _169  and  _171
REMARK   67  A    between atoms: _171  and  _172
REMARK   68  A    between atoms: _171  and  _174
REMARK   69  A    between atoms: _174  and  _175
REMARK   70  A    between atoms: _175  and  _176
REMARK   71  A    between atoms: _176  and  _177
REMARK   72  A    between atoms: _186  and  _188
REMARK   73  A    between atoms: _188  and  _189
REMARK   74  A    between atoms: _188  and  _191
REMARK   75  A    between atoms: _191  and  _192
REMARK   76  A    between atoms: _197  and  _199
REMARK   77  A    between atoms: _199  and  _200
REMARK   78  A    between atoms: _199  and  _202
REMARK   79  A    between atoms: _202  and  _203
REMARK   80  A    between atoms: _206  and  _208
REMARK   81  A    between atoms: _208  and  _209
REMARK   82  A    between atoms: _208  and  _211
REMARK   83  A    between atoms: _211  and  _212
REMARK   84  A    between atoms: _215  and  _217
REMARK   85  A    between atoms: _217  and  _218
REMARK   86  A    between atoms: _217  and  _220
REMARK   87  A    between atoms: _220  and  _221
REMARK   88  A    between atoms: _226  and  _228
REMARK   89  A    between atoms: _228  and  _229
REMARK   90  A    between atoms: _228  and  _231
REMARK   91  A    between atoms: _231  and  _232
REMARK   92  A    between atoms: _235  and  _237
REMARK   93  A    between atoms: _237  and  _238
REMARK   94  A    between atoms: _237  and  _240
REMARK   95  A    between atoms: _240  and  _241
REMARK   96  A    between atoms: _246  and  _248
REMARK   97  A    between atoms: _248  and  _249
REMARK   98  A    between atoms: _248  and  _251
REMARK   99  A    between atoms: _251  and  _252
REMARK  100  A    between atoms: _257  and  _259
REMARK  101  A    between atoms: _259  and  _260
REMARK  102  A    between atoms: _259  and  _262
REMARK  103  A    between atoms: _262  and  _263
REMARK  104  A    between atoms: _266  and  _268
REMARK  105  A    between atoms: _268  and  _269
REMARK  106  A    between atoms: _268  and  _271
REMARK  107  A    between atoms: _274  and  _276
REMARK  108  A    between atoms: _276  and  _277
REMARK  109  A    between atoms: _276  and  _279
REMARK  110  A    between atoms: _279  and  _280
REMARK  111  A    between atoms: _284  and  _285
REMARK  112  A    between atoms: _290  and  _292
REMARK  113  A    between atoms: _292  and  _293
REMARK  114  A    between atoms: _292  and  _295
REMARK  115  A    between atoms: _295  and  _296
REMARK  116  A    between atoms: _296  and  _297
REMARK  117  A    between atoms: _300  and  _302
REMARK  118  A    between atoms: _302  and  _303
REMARK  119  A    between atoms: _306  and  _308
REMARK  120  A    between atoms: _308  and  _309
REMARK  121  A    between atoms: _308  and  _311
REMARK  122  A    between atoms: _311  and  _312
REMARK  123  A    between atoms: _315  and  _317
REMARK  124  A    between atoms: _317  and  _318
REMARK  125  A    between atoms: _317  and  _320
REMARK  126  A    between atoms: _320  and  _321
REMARK  127  A    between atoms: _321  and  _322
REMARK  128  A    between atoms: _325  and  _327
REMARK  129  A    between atoms: _327  and  _328
REMARK  130  A    between atoms: _327  and  _330
REMARK  131  A    between atoms: _330  and  _331
REMARK  132  A    between atoms: _336  and  _338
REMARK  133  A    between atoms: _338  and  _339
REMARK  134  A    between atoms: _341  and  _343
REMARK  135  A    between atoms: _343  and  _344
REMARK  136  A    between atoms: _343  and  _346
REMARK  137  A    between atoms: _349  and  _351
REMARK  138  A    between atoms: _351  and  _352
REMARK  139  A    between atoms: _355  and  _357
REMARK  140  A    between atoms: _357  and  _358
REMARK  141  A    between atoms: _357  and  _360
REMARK  142  A    between atoms: _360  and  _361
REMARK  143  A    between atoms: _366  and  _368
REMARK  144  A    between atoms: _368  and  _369
REMARK  145  A    between atoms: _368  and  _371
REMARK  146  A    between atoms: _371  and  _372
REMARK  147  A    between atoms: _372  and  _373
REMARK  148  A    between atoms: _373  and  _374
REMARK  149  A    between atoms: _374  and  _375
REMARK  150  A    between atoms: _379  and  _381
REMARK  151  A    between atoms: _381  and  _382
REMARK  152  A    between atoms: _381  and  _384
REMARK  153  A    between atoms: _384  and  _385
REMARK  154  A    between atoms: _388  and  _390
REMARK  155  A    between atoms: _390  and  _391
REMARK  156  A    between atoms: _390  and  _393
REMARK  157  A    between atoms: _393  and  _394
REMARK  158  A    between atoms: _399  and  _401
REMARK  159  A    between atoms: _401  and  _402
REMARK  160  A    between atoms: _404  and  _406
REMARK  161  A    between atoms: _406  and  _407
REMARK  162  A    between atoms: _406  and  _409
REMARK  163  A    between atoms: _409  and  _410
REMARK  164  A    between atoms: _410  and  _411
REMARK  165  A    between atoms: _411  and  _412
REMARK  166  A    between atoms: _412  and  _413
REMARK  167  A    between atoms: _417  and  _419
REMARK  168  A    between atoms: _419  and  _420
REMARK  169  A    between atoms: _419  and  _422
REMARK  170  A    between atoms: _422  and  _423
REMARK  171  A    between atoms: _423  and  _424
REMARK  172  A    between atoms: _424  and  _425
REMARK  173  A    between atoms: _434  and  _436
REMARK  174  A    between atoms: _436  and  _437
REMARK  175  A    between atoms: _436  and  _439
REMARK  176  A    between atoms: _439  and  _440
REMARK  177  A    between atoms: _445  and  _447
REMARK  178  A    between atoms: _447  and  _448
REMARK  179  A    between atoms: _447  and  _450
REMARK  180  A    between atoms: _450  and  _451
REMARK  181  A    between atoms: _456  and  _457
REMARK  182  A    between atoms: _459  and  _461
REMARK  183  A    between atoms: _461  and  _462
REMARK  184  A    between atoms: _461  and  _464
REMARK  185  A    between atoms: _464  and  _465
REMARK  186  A    between atoms: _465  and  _466
REMARK  187  A    between atoms: _466  and  _467
REMARK  188  A    between atoms: _467  and  _468
REMARK  189  A    between atoms: _472  and  _474
REMARK  190  A    between atoms: _474  and  _475
REMARK  191  A    between atoms: _474  and  _477
REMARK  192  A    between atoms: _477  and  _478
REMARK  193  A    between atoms: _483  and  _484
REMARK  194  A    between atoms: _486  and  _488
REMARK  195  A    between atoms: _488  and  _489
REMARK  196  A    between atoms: _488  and  _491
REMARK  197  A    between atoms: _491  and  _492
REMARK  198  A    between atoms: _494  and  _496
REMARK  199  A    between atoms: _496  and  _497
REMARK  200  A    between atoms: _496  and  _499
REMARK  201  A    between atoms: _499  and  _500
REMARK  202  A    between atoms: _503  and  _505
REMARK  203  A    between atoms: _505  and  _506
REMARK  204  A    between atoms: _505  and  _508
REMARK  205  A    between atoms: _508  and  _509
REMARK  206  A    between atoms: _509  and  _510
REMARK  207  A    between atoms: _513  and  _515
REMARK  208  A    between atoms: _515  and  _516
REMARK  209  A    between atoms: _519  and  _521
REMARK  210  A    between atoms: _521  and  _522
REMARK  211  A    between atoms: _521  and  _524
REMARK  212  A    between atoms: _524  and  _525
REMARK  213  A    between atoms: _527  and  _529
REMARK  214  A    between atoms: _529  and  _530
REMARK  215  A    between atoms: _532  and  _534
REMARK  216  A    between atoms: _534  and  _535
REMARK  217  A    between atoms: _534  and  _537
REMARK  218  A    between atoms: _537  and  _538
REMARK  219  A    between atoms: _541  and  _543
REMARK  220  A    between atoms: _543  and  _544
REMARK  221  A    between atoms: _546  and  _548
REMARK  222  A    between atoms: _548  and  _549
REMARK  223  A    between atoms: _548  and  _551
REMARK  224  A    between atoms: _551  and  _552
REMARK  225  A    between atoms: _557  and  _559
REMARK  226  A    between atoms: _559  and  _560
REMARK  227  A    between atoms: _559  and  _562
REMARK  228  A    between atoms: _562  and  _563
REMARK  229  A    between atoms: _563  and  _564
REMARK  230  A    between atoms: _571  and  _572
REMARK  231  A    between atoms: _572  and  _588
REMARK  232  A    between atoms: _573  and  _575
REMARK  233  A    between atoms: _575  and  _576
REMARK  234  A    between atoms: _576  and  _577
REMARK  235  A    between atoms: _581  and  _583
REMARK  236  A    between atoms: _583  and  _584
REMARK  237  A    between atoms: _583  and  _591
REMARK  238  A    between atoms: _584  and  _585
REMARK  239  A    between atoms: _585  and  _586
REMARK  240  A    between atoms: _586  and  _587
REMARK  241  A    between atoms: _587  and  _588
REMARK  242  A    between atoms: _593  and  _595
REMARK  243  A    between atoms: _595  and  _596
REMARK  244  A    between atoms: _595  and  _598
REMARK  245  A    between atoms: _598  and  _599
REMARK  246  A    between atoms: _602  and  _604
REMARK  247  A    between atoms: _604  and  _605
REMARK  248  A    between atoms: _607  and  _609
REMARK  249  A    between atoms: _609  and  _610
REMARK  250  A    between atoms: _613  and  _615
REMARK  251  A    between atoms: _615  and  _616
REMARK  252  A    between atoms: _615  and  _618
REMARK  253  A    between atoms: _618  and  _619
REMARK  254  A    between atoms: _619  and  _620
REMARK  255  A    between atoms: _620  and  _621
REMARK  256  A    between atoms: _630  and  _632
REMARK  257  A    between atoms: _632  and  _633
REMARK  258  A    between atoms: _632  and  _635
REMARK  259  A    between atoms: _635  and  _636
REMARK  260  A    between atoms: _641  and  _642
REMARK                            x       y       z     vdW  Elec       q    Type
REMARK                         _______ _______ _______ _____ _____    ______ ____
ROOT
ATOM      1  C   LYS A   1      26.006  30.239  27.262  0.00  0.00    +0.238 C 
ATOM      2  N   ARG A   2      27.093  29.941  27.965  0.00  0.00    -0.298 N 
ATOM      3  H   ARG A   2      27.395  28.948  28.035  0.00  0.00    +0.150 HD
ATOM      4  O   LYS A   1      25.562  31.388  27.163  0.00  0.00    -0.274 OA
ENDROOT
BRANCH   1   5
ATOM      5  CA  LYS A   1      25.302  29.081  26.556  0.00  0.00    +0.145 C 
BRANCH   5   6
ATOM      6  N   LYS A   1      24.035  29.615  26.073  0.00  0.00    -0.238 NA
ATOM      7  H   LYS A   1      23.768  30.571  26.384  0.00  0.00    +0.142 HD
ENDBRANCH   5   6
BRANCH   5   8
ATOM      8  CB  LYS A   1      26.178  28.540  25.414  0.00  0.00    +0.026 C 
BRANCH   8   9
ATOM      9  CG  LYS A   1      26.643  29.581  24.396  0.00  0.00    -0.000 C 
BRANCH   9  10
ATOM     10  CD  LYS A   1      25.927  29.436  23.076  0.00  0.00    -0.024 C 
BRANCH  10  11
ATOM     11  CE  LYS A   1      26.703  28.602  22.072  0.00  0.00    -0.086 C 
BRANCH  11  12
ATOM     12  NZ  LYS A   1      26.442  27.133  22.091  0.00  0.00    +0.380 N 
ATOM     13  HZ1 LYS A   1      26.683  26.751  23.028  0.00  0.00    -0.089 HD
ATOM     14  HZ2 LYS A   1      25.436  26.958  21.892  0.00  0.00    -0.089 HD
ATOM     15  HZ3 LYS A   1      27.025  26.669  21.366  0.00  0.00    -0.089 HD
ENDBRANCH  11  12
ENDBRANCH  10  11
ENDBRANCH   9  10
ENDBRANCH   8   9
ENDBRANCH   5   8
ENDBRANCH   1   5
BRANCH   2  16
ATOM     16  CA  ARG A   2      27.873  30.971  28.641  0.00  0.00    +0.137 C 
BRANCH  16  17
ATOM     17  C   ARG A   2      28.381  32.024  27.652  0.00  0.00    +0.227 C 
ATOM     18  O   ARG A   2      28.678  31.712  26.490  0.00  0.00    -0.286 OA
ENDBRANCH  16  17
BRANCH  16  19
ATOM     19  CB  ARG A   2      29.044  30.344  29.411  0.00  0.00    +0.031 C 
BRANCH  19  20
ATOM     20  CG  ARG A   2      28.624  29.543  30.643  0.00  0.00    +0.045 C 
BRANCH  20  21
ATOM     21  CD  ARG A   2      28.081  30.438  31.756  0.00  0.00    +0.174 C 
BRANCH  21  22
ATOM     22  NE  ARG A   2      29.096  31.349  32.279  0.00  0.00    -0.265 N 
ATOM     23  CZ  ARG A   2      29.723  31.211  33.446  0.00  0.00    +0.342 C 
ATOM     24  NH2 ARG A   2      29.439  30.200  34.252  0.00  0.00    -0.292 N 
ATOM     25 HH21 ARG A   2      29.936  30.104  35.161  0.00  0.00    +0.255 HD
ATOM     26 HH22 ARG A   2      28.719  29.502  33.977  0.00  0.00    +0.255 HD
ATOM     27  NH1 ARG A   2      30.630  32.106  33.816  0.00  0.00    -0.292 N 
ATOM     28 HH11 ARG A   2      31.122  32.002  34.726  0.00  0.00    +0.255 HD
ATOM     29 HH12 ARG A   2      30.849  32.911  33.196  0.00  0.00    +0.255 HD
ATOM     30  HE  ARG A   2      29.349  32.171  31.694  0.00  0.00    +0.259 HD
ENDBRANCH  21  22
ENDBRANCH  20  21
ENDBRANCH  19  20
ENDBRANCH  16  19
ENDBRANCH   2  16
TORSDOF 13
REMARK  Name = ../refined-set-2016/3g2l/3g2l_pocket.pdb
REMARK  260 active torsions:
REMARK  status: ('A' for Active; 'I' for Inactive)
REMARK    1  A    between atoms: _1  and  _3
REMARK    2  A    between atoms: _3  and  _4
REMARK    3  A    between atoms: _3  and  _6
REMARK    4  A    between atoms: _6  and  _7
REMARK    5  A    between atoms: _12  and  _13
REMARK    6  A    between atoms: _15  and  _17
REMARK    7  A    between atoms: _17  and  _18
REMARK    8  A    between atoms: _17  and  _20
REMARK    9  A    between atoms: _20  and  _21
REMARK   10  A    between atoms: _21  and  _22
REMARK   11  A    between atoms: _25  and  _27
REMARK   12  A    between atoms: _27  and  _28
REMARK   13  A    between atoms: _27  and  _30
REMARK   14  A    between atoms: _30  and  _31
REMARK   15  A    between atoms: _36  and  _38
REMARK   16  A    between atoms: _38  and  _39
REMARK   17  A    between atoms: _41  and  _43
REMARK   18  A    between atoms: _43  and  _44
REMARK   19  A    between atoms: _46  and  _48
REMARK   20  A    between atoms: _48  and  _49
REMARK   21  A    between atoms: _48  and  _51
REMARK   22  A    between atoms: _51  and  _52
REMARK   23  A    between atoms: _55  and  _57
REMARK   24  A    between atoms: _57  and  _58
REMARK   25  A    between atoms: _60  and  _62
REMARK   26  A    between atoms: _62  and  _63
REMARK   27  A    between atoms: _62  and  _65
REMARK   28  A    between atoms: _65  and  _66
REMARK   29  A    between atoms: _66  and  _67
REMARK   30  A    between atoms: _67  and  _68
REMARK   31  A    between atoms: _77  and  _79
REMARK   32  A    between atoms: _79  and  _80
REMARK   33  A    between atoms: _79  and  _82
REMARK   34  A    between atoms: _82  and  _83
REMARK   35  A    between atoms: _86  and  _88
REMARK   36  A    between atoms: _88  and  _89
REMARK   37  A    between atoms: _92  and  _94
REMARK   38  A    between atoms: _94  and  _95
REMARK   39  A    between atoms: _94  and  _97
REMARK   40  A    between atoms: _97  and  _98
REMARK   41  A    between atoms: _104  and  _106
REMARK   42  A    between atoms: _106  and  _107
REMARK   43  A    between atoms: _106  and  _109
REMARK   44  A    between atoms: _109  and  _110
REMARK   45  A    between atoms: _115  and  _117
REMARK   46  A    between atoms: _117  and  _118
REMARK   47  A    between atoms: _117  and  _120
REMARK   48  A    between atoms: _120  and  _121
REMARK   49  A    between atoms: _124  and  _126
REMARK   50  A    between atoms: _126  and  _127
REMARK   51  A    between atoms: _126  and  _129
REMARK   52  A    between atoms: _129  and  _130
REMARK   53  A    between atoms: _135  and  _137
REMARK   54  A    between atoms: _137  and  _138
REMARK   55  A    between atoms: _137  and  _140
REMARK   56  A    between atoms: _140  and  _141
REMARK   57  A    between atoms: _147  and  _149
REMARK   58  A    between atoms: _149  and  _150
REMARK   59  A    between atoms: _149  and  _152
REMARK   60  A    between atoms: _152  and  _153
REMARK   61  A    between atoms: _159  and  _161
REMARK   62  A    between atoms: _161  and  _162
REMARK   63  A    between atoms: _161  and  _164
REMARK   64  A    between atoms: _164  and  _165
REMARK   65  A    between atoms: _165  and  _166
REMARK   66  A    between atoms: _169  and  _171
REMARK   67  A    between atoms: _171  and  _172
REMARK   68  A    between atoms: _171  and  _174
REMARK   69  A    between atoms: _174  and  _175
REMARK   70  A    between atoms: _175  and  _176
REMARK   71  A    between atoms: _176  and  _177
REMARK   72  A    between atoms: _186  and  _188
REMARK   73  A    between atoms: _188  and  _189
REMARK   74  A    between atoms: _188  and  _191
REMARK   75  A    between atoms: _191  and  _192
REMARK   76  A    between atoms: _197  and  _199
REMARK   77  A    between atoms: _199  and  _200
REMARK   78  A    between atoms: _199  and  _202
REMARK   79  A    between atoms: _202  and  _203
REMARK   80  A    between atoms: _206  and  _208
REMARK   81  A    between atoms: _208  and  _209
REMARK   82  A    between atoms: _208  and  _211
REMARK   83  A    between atoms: _211  and  _212
REMARK   84  A    between atoms: _215  and  _217
REMARK   85  A    between atoms: _217  and  _218
REMARK   86  A    between atoms: _217  and  _220
REMARK   87  A    between atoms: _220  and  _221
REMARK   88  A    between atoms: _226  and  _228
REMARK   89  A    between atoms: _228  and  _229
REMARK   90  A    between atoms: _228  and  _231
REMARK   91  A    between atoms: _231  and  _232
REMARK   92  A    between atoms: _235  and  _237
REMARK   93  A    between atoms: _237  and  _238
REMARK   94  A    between atoms: _237  and  _240
REMARK   95  A    between atoms: _240  and  _241
REMARK   96  A    between atoms: _246  and  _248
REMARK   97  A    between atoms: _248  and  _249
REMARK   98  A    between atoms: _248  and  _251
REMARK   99  A    between atoms: _251  and  _252
REMARK  100  A    between atoms: _257  and  _259
REMARK  101  A    between atoms: _259  and  _260
REMARK  102  A    between atoms: _259  and  _262
REMARK  103  A    between atoms: _262  and  _263
REMARK  104  A    between atoms: _266  and  _268
REMARK  105  A    between atoms: _268  and  _269
REMARK  106  A    between atoms: _268  and  _271
REMARK  107  A    between atoms: _274  and  _276
REMARK  108  A    between atoms: _276  and  _277
REMARK  109  A    between atoms: _276  and  _279
REMARK  110  A    between atoms: _279  and  _280
REMARK  111  A    between atoms: _284  and  _285
REMARK  112  A    between atoms: _290  and  _292
REMARK  113  A    between atoms: _292  and  _293
REMARK  114  A    between atoms: _292  and  _295
REMARK  115  A    between atoms: _295  and  _296
REMARK  116  A    between atoms: _296  and  _297
REMARK  117  A    between atoms: _300  and  _302
REMARK  118  A    between atoms: _302  and  _303
REMARK  119  A    between atoms: _306  and  _308
REMARK  120  A    between atoms: _308  and  _309
REMARK  121  A    between atoms: _308  and  _311
REMARK  122  A    between atoms: _311  and  _312
REMARK  123  A    between atoms: _315  and  _317
REMARK  124  A    between atoms: _317  and  _318
REMARK  125  A    between atoms: _317  and  _320
REMARK  126  A    between atoms: _320  and  _321
REMARK  127  A    between atoms: _321  and  _322
REMARK  128  A    between atoms: _325  and  _327
REMARK  129  A    between atoms: _327  and  _328
REMARK  130  A    between atoms: _327  and  _330
REMARK  131  A    between atoms: _330  and  _331
REMARK  132  A    between atoms: _336  and  _338
REMARK  133  A    between atoms: _338  and  _339
REMARK  134  A    between atoms: _341  and  _343
REMARK  135  A    between atoms: _343  and  _344
REMARK  136  A    between atoms: _343  and  _346
REMARK  137  A    between atoms: _349  and  _351
REMARK  138  A    between atoms: _351  and  _352
REMARK  139  A    between atoms: _355  and  _357
REMARK  140  A    between atoms: _357  and  _358
REMARK  141  A    between atoms: _357  and  _360
REMARK  142  A    between atoms: _360  and  _361
REMARK  143  A    between atoms: _366  and  _368
REMARK  144  A    between atoms: _368  and  _369
REMARK  145  A    between atoms: _368  and  _371
REMARK  146  A    between atoms: _371  and  _372
REMARK  147  A    between atoms: _372  and  _373
REMARK  148  A    between atoms: _373  and  _374
REMARK  149  A    between atoms: _374  and  _375
REMARK  150  A    between atoms: _379  and  _381
REMARK  151  A    between atoms: _381  and  _382
REMARK  152  A    between atoms: _381  and  _384
REMARK  153  A    between atoms: _384  and  _385
REMARK  154  A    between atoms: _388  and  _390
REMARK  155  A    between atoms: _390  and  _391
REMARK  156  A    between atoms: _390  and  _393
REMARK  157  A    between atoms: _393  and  _394
REMARK  158  A    between atoms: _399  and  _401
REMARK  159  A    between atoms: _401  and  _402
REMARK  160  A    between atoms: _404  and  _406
REMARK  161  A    between atoms: _406  and  _407
REMARK  162  A    between atoms: _406  and  _409
REMARK  163  A    between atoms: _409  and  _410
REMARK  164  A    between atoms: _410  and  _411
REMARK  165  A    between atoms: _411  and  _412
REMARK  166  A    between atoms: _412  and  _413
REMARK  167  A    between atoms: _417  and  _419
REMARK  168  A    between atoms: _419  and  _420
REMARK  169  A    between atoms: _419  and  _422
REMARK  170  A    between atoms: _422  and  _423
REMARK  171  A    between atoms: _423  and  _424
REMARK  172  A    between atoms: _424  and  _425
REMARK  173  A    between atoms: _434  and  _436
REMARK  174  A    between atoms: _436  and  _437
REMARK  175  A    between atoms: _436  and  _439
REMARK  176  A    between atoms: _439  and  _440
REMARK  177  A    between atoms: _445  and  _447
REMARK  178  A    between atoms: _447  and  _448
REMARK  179  A    between atoms: _447  and  _450
REMARK  180  A    between atoms: _450  and  _451
REMARK  181  A    between atoms: _456  and  _457
REMARK  182  A    between atoms: _459  and  _461
REMARK  183  A    between atoms: _461  and  _462
REMARK  184  A    between atoms: _461  and  _464
REMARK  185  A    between atoms: _464  and  _465
REMARK  186  A    between atoms: _465  and  _466
REMARK  187  A    between atoms: _466  and  _467
REMARK  188  A    between atoms: _467  and  _468
REMARK  189  A    between atoms: _472  and  _474
REMARK  190  A    between atoms: _474  and  _475
REMARK  191  A    between atoms: _474  and  _477
REMARK  192  A    between atoms: _477  and  _478
REMARK  193  A    between atoms: _483  and  _484
REMARK  194  A    between atoms: _486  and  _488
REMARK  195  A    between atoms: _488  and  _489
REMARK  196  A    between atoms: _488  and  _491
REMARK  197  A    between atoms: _491  and  _492
REMARK  198  A    between atoms: _494  and  _496
REMARK  199  A    between atoms: _496  and  _497
REMARK  200  A    between atoms: _496  and  _499
REMARK  201  A    between atoms: _499  and  _500
REMARK  202  A    between atoms: _503  and  _505
REMARK  203  A    between atoms: _505  and  _506
REMARK  204  A    between atoms: _505  and  _508
REMARK  205  A    between atoms: _508  and  _509
REMARK  206  A    between atoms: _509  and  _510
REMARK  207  A    between atoms: _513  and  _515
REMARK  208  A    between atoms: _515  and  _516
REMARK  209  A    between atoms: _519  and  _521
REMARK  210  A    between atoms: _521  and  _522
REMARK  211  A    between atoms: _521  and  _524
REMARK  212  A    between atoms: _524  and  _525
REMARK  213  A    between atoms: _527  and  _529
REMARK  214  A    between atoms: _529  and  _530
REMARK  215  A    between atoms: _532  and  _534
REMARK  216  A    between atoms: _534  and  _535
REMARK  217  A    between atoms: _534  and  _537
REMARK  218  A    between atoms: _537  and  _538
REMARK  219  A    between atoms: _541  and  _543
REMARK  220  A    between atoms: _543  and  _544
REMARK  221  A    between atoms: _546  and  _548
REMARK  222  A    between atoms: _548  and  _549
REMARK  223  A    between atoms: _548  and  _551
REMARK  224  A    between atoms: _551  and  _552
REMARK  225  A    between atoms: _557  and  _559
REMARK  226  A    between atoms: _559  and  _560
REMARK  227  A    between atoms: _559  and  _562
REMARK  228  A    between atoms: _562  and  _563
REMARK  229  A    between atoms: _563  and  _564
REMARK  230  A    between atoms: _571  and  _572
REMARK  231  A    between atoms: _572  and  _588
REMARK  232  A    between atoms: _573  and  _575
REMARK  233  A    between atoms: _575  and  _576
REMARK  234  A    between atoms: _576  and  _577
REMARK  235  A    between atoms: _581  and  _583
REMARK  236  A    between atoms: _583  and  _584
REMARK  237  A    between atoms: _583  and  _591
REMARK  238  A    between atoms: _584  and  _585
REMARK  239  A    between atoms: _585  and  _586
REMARK  240  A    between atoms: _586  and  _587
REMARK  241  A    between atoms: _587  and  _588
REMARK  242  A    between atoms: _593  and  _595
REMARK  243  A    between atoms: _595  and  _596
REMARK  244  A    between atoms: _595  and  _598
REMARK  245  A    between atoms: _598  and  _599
REMARK  246  A    between atoms: _602  and  _604
REMARK  247  A    between atoms: _604  and  _605
REMARK  248  A    between atoms: _607  and  _609
REMARK  249  A    between atoms: _609  and  _610
REMARK  250  A    between atoms: _613  and  _615
REMARK  251  A    between atoms: _615  and  _616
REMARK  252  A    between atoms: _615  and  _618
REMARK  253  A    between atoms: _618  and  _619
REMARK  254  A    between atoms: _619  and  _620
REMARK  255  A    between atoms: _620  and  _621
REMARK  256  A    between atoms: _630  and  _632
REMARK  257  A    between atoms: _632  and  _633
REMARK  258  A    between atoms: _632  and  _635
REMARK  259  A    between atoms: _635  and  _636
REMARK  260  A    between atoms: _641  and  _642
REMARK                            x       y       z     vdW  Elec       q    Type
REMARK                         _______ _______ _______ _____ _____    ______ ____
ROOT
ATOM      1  CB  HIS A   1      33.032  32.727  25.824  0.00  0.00    +0.072 C 
ENDROOT
BRANCH   1   2
ATOM      2  CG  HIS A   1      34.519  32.769  26.022  0.00  0.00    +0.082 A 
ATOM      3  CD2 HIS A   1      35.285  32.447  27.093  0.00  0.00    +0.115 A 
ATOM      4  NE2 HIS A   1      36.596  32.666  26.736  0.00  0.00    -0.221 NA
ATOM      5  CE1 HIS A   1      36.635  33.114  25.492  0.00  0.00    +0.199 A 
ATOM      6  ND1 HIS A   1      35.397  33.178  25.034  0.00  0.00    -0.227 NA
ENDBRANCH   1   2
BRANCH   1   7
ATOM      7  CA  HIS A   1      32.390  34.112  25.650  0.00  0.00    +0.139 C 
BRANCH   7   8
ATOM      8  N   HIS A   1      30.959  34.081  25.937  0.00  0.00    -0.239 NA
ATOM      9  H   HIS A   1      30.297  33.882  25.160  0.00  0.00    +0.142 HD
ENDBRANCH   7   8
BRANCH   7  10
ATOM     10  C   HIS A   1      32.592  34.618  24.231  0.00  0.00    +0.224 C 
ATOM     11  O   HIS A   1      31.741  34.412  23.360  0.00  0.00    -0.287 OA
ENDBRANCH   7  10
ENDBRANCH   1   7
TORSDOF 4
REMARK  Name = ../refined-set-2016/3g2l/3g2l_pocket.pdb
REMARK  260 active torsions:
REMARK  status: ('A' for Active; 'I' for Inactive)
REMARK    1  A    between atoms: _1  and  _3
REMARK    2  A    between atoms: _3  and  _4
REMARK    3  A    between atoms: _3  and  _6
REMARK    4  A    between atoms: _6  and  _7
REMARK    5  A    between atoms: _12  and  _13
REMARK    6  A    between atoms: _15  and  _17
REMARK    7  A    between atoms: _17  and  _18
REMARK    8  A    between atoms: _17  and  _20
REMARK    9  A    between atoms: _20  and  _21
REMARK   10  A    between atoms: _21  and  _22
REMARK   11  A    between atoms: _25  and  _27
REMARK   12  A    between atoms: _27  and  _28
REMARK   13  A    between atoms: _27  and  _30
REMARK   14  A    between atoms: _30  and  _31
REMARK   15  A    between atoms: _36  and  _38
REMARK   16  A    between atoms: _38  and  _39
REMARK   17  A    between atoms: _41  and  _43
REMARK   18  A    between atoms: _43  and  _44
REMARK   19  A    between atoms: _46  and  _48
REMARK   20  A    between atoms: _48  and  _49
REMARK   21  A    between atoms: _48  and  _51
REMARK   22  A    between atoms: _51  and  _52
REMARK   23  A    between atoms: _55  and  _57
REMARK   24  A    between atoms: _57  and  _58
REMARK   25  A    between atoms: _60  and  _62
REMARK   26  A    between atoms: _62  and  _63
REMARK   27  A    between atoms: _62  and  _65
REMARK   28  A    between atoms: _65  and  _66
REMARK   29  A    between atoms: _66  and  _67
REMARK   30  A    between atoms: _67  and  _68
REMARK   31  A    between atoms: _77  and  _79
REMARK   32  A    between atoms: _79  and  _80
REMARK   33  A    between atoms: _79  and  _82
REMARK   34  A    between atoms: _82  and  _83
REMARK   35  A    between atoms: _86  and  _88
REMARK   36  A    between atoms: _88  and  _89
REMARK   37  A    between atoms: _92  and  _94
REMARK   38  A    between atoms: _94  and  _95
REMARK   39  A    between atoms: _94  and  _97
REMARK   40  A    between atoms: _97  and  _98
REMARK   41  A    between atoms: _104  and  _106
REMARK   42  A    between atoms: _106  and  _107
REMARK   43  A    between atoms: _106  and  _109
REMARK   44  A    between atoms: _109  and  _110
REMARK   45  A    between atoms: _115  and  _117
REMARK   46  A    between atoms: _117  and  _118
REMARK   47  A    between atoms: _117  and  _120
REMARK   48  A    between atoms: _120  and  _121
REMARK   49  A    between atoms: _124  and  _126
REMARK   50  A    between atoms: _126  and  _127
REMARK   51  A    between atoms: _126  and  _129
REMARK   52  A    between atoms: _129  and  _130
REMARK   53  A    between atoms: _135  and  _137
REMARK   54  A    between atoms: _137  and  _138
REMARK   55  A    between atoms: _137  and  _140
REMARK   56  A    between atoms: _140  and  _141
REMARK   57  A    between atoms: _147  and  _149
REMARK   58  A    between atoms: _149  and  _150
REMARK   59  A    between atoms: _149  and  _152
REMARK   60  A    between atoms: _152  and  _153
REMARK   61  A    between atoms: _159  and  _161
REMARK   62  A    between atoms: _161  and  _162
REMARK   63  A    between atoms: _161  and  _164
REMARK   64  A    between atoms: _164  and  _165
REMARK   65  A    between atoms: _165  and  _166
REMARK   66  A    between atoms: _169  and  _171
REMARK   67  A    between atoms: _171  and  _172
REMARK   68  A    between atoms: _171  and  _174
REMARK   69  A    between atoms: _174  and  _175
REMARK   70  A    between atoms: _175  and  _176
REMARK   71  A    between atoms: _176  and  _177
REMARK   72  A    between atoms: _186  and  _188
REMARK   73  A    between atoms: _188  and  _189
REMARK   74  A    between atoms: _188  and  _191
REMARK   75  A    between atoms: _191  and  _192
REMARK   76  A    between atoms: _197  and  _199
REMARK   77  A    between atoms: _199  and  _200
REMARK   78  A    between atoms: _199  and  _202
REMARK   79  A    between atoms: _202  and  _203
REMARK   80  A    between atoms: _206  and  _208
REMARK   81  A    between atoms: _208  and  _209
REMARK   82  A    between atoms: _208  and  _211
REMARK   83  A    between atoms: _211  and  _212
REMARK   84  A    between atoms: _215  and  _217
REMARK   85  A    between atoms: _217  and  _218
REMARK   86  A    between atoms: _217  and  _220
REMARK   87  A    between atoms: _220  and  _221
REMARK   88  A    between atoms: _226  and  _228
REMARK   89  A    between atoms: _228  and  _229
REMARK   90  A    between atoms: _228  and  _231
REMARK   91  A    between atoms: _231  and  _232
REMARK   92  A    between atoms: _235  and  _237
REMARK   93  A    between atoms: _237  and  _238
REMARK   94  A    between atoms: _237  and  _240
REMARK   95  A    between atoms: _240  and  _241
REMARK   96  A    between atoms: _246  and  _248
REMARK   97  A    between atoms: _248  and  _249
REMARK   98  A    between atoms: _248  and  _251
REMARK   99  A    between atoms: _251  and  _252
REMARK  100  A    between atoms: _257  and  _259
REMARK  101  A    between atoms: _259  and  _260
REMARK  102  A    between atoms: _259  and  _262
REMARK  103  A    between atoms: _262  and  _263
REMARK  104  A    between atoms: _266  and  _268
REMARK  105  A    between atoms: _268  and  _269
REMARK  106  A    between atoms: _268  and  _271
REMARK  107  A    between atoms: _274  and  _276
REMARK  108  A    between atoms: _276  and  _277
REMARK  109  A    between atoms: _276  and  _279
REMARK  110  A    between atoms: _279  and  _280
REMARK  111  A    between atoms: _284  and  _285
REMARK  112  A    between atoms: _290  and  _292
REMARK  113  A    between atoms: _292  and  _293
REMARK  114  A    between atoms: _292  and  _295
REMARK  115  A    between atoms: _295  and  _296
REMARK  116  A    between atoms: _296  and  _297
REMARK  117  A    between atoms: _300  and  _302
REMARK  118  A    between atoms: _302  and  _303
REMARK  119  A    between atoms: _306  and  _308
REMARK  120  A    between atoms: _308  and  _309
REMARK  121  A    between atoms: _308  and  _311
REMARK  122  A    between atoms: _311  and  _312
REMARK  123  A    between atoms: _315  and  _317
REMARK  124  A    between atoms: _317  and  _318
REMARK  125  A    between atoms: _317  and  _320
REMARK  126  A    between atoms: _320  and  _321
REMARK  127  A    between atoms: _321  and  _322
REMARK  128  A    between atoms: _325  and  _327
REMARK  129  A    between atoms: _327  and  _328
REMARK  130  A    between atoms: _327  and  _330
REMARK  131  A    between atoms: _330  and  _331
REMARK  132  A    between atoms: _336  and  _338
REMARK  133  A    between atoms: _338  and  _339
REMARK  134  A    between atoms: _341  and  _343
REMARK  135  A    between atoms: _343  and  _344
REMARK  136  A    between atoms: _343  and  _346
REMARK  137  A    between atoms: _349  and  _351
REMARK  138  A    between atoms: _351  and  _352
REMARK  139  A    between atoms: _355  and  _357
REMARK  140  A    between atoms: _357  and  _358
REMARK  141  A    between atoms: _357  and  _360
REMARK  142  A    between atoms: _360  and  _361
REMARK  143  A    between atoms: _366  and  _368
REMARK  144  A    between atoms: _368  and  _369
REMARK  145  A    between atoms: _368  and  _371
REMARK  146  A    between atoms: _371  and  _372
REMARK  147  A    between atoms: _372  and  _373
REMARK  148  A    between atoms: _373  and  _374
REMARK  149  A    between atoms: _374  and  _375
REMARK  150  A    between atoms: _379  and  _381
REMARK  151  A    between atoms: _381  and  _382
REMARK  152  A    between atoms: _381  and  _384
REMARK  153  A    between atoms: _384  and  _385
REMARK  154  A    between atoms: _388  and  _390
REMARK  155  A    between atoms: _390  and  _391
REMARK  156  A    between atoms: _390  and  _393
REMARK  157  A    between atoms: _393  and  _394
REMARK  158  A    between atoms: _399  and  _401
REMARK  159  A    between atoms: _401  and  _402
REMARK  160  A    between atoms: _404  and  _406
REMARK  161  A    between atoms: _406  and  _407
REMARK  162  A    between atoms: _406  and  _409
REMARK  163  A    between atoms: _409  and  _410
REMARK  164  A    between atoms: _410  and  _411
REMARK  165  A    between atoms: _411  and  _412
REMARK  166  A    between atoms: _412  and  _413
REMARK  167  A    between atoms: _417  and  _419
REMARK  168  A    between atoms: _419  and  _420
REMARK  169  A    between atoms: _419  and  _422
REMARK  170  A    between atoms: _422  and  _423
REMARK  171  A    between atoms: _423  and  _424
REMARK  172  A    between atoms: _424  and  _425
REMARK  173  A    between atoms: _434  and  _436
REMARK  174  A    between atoms: _436  and  _437
REMARK  175  A    between atoms: _436  and  _439
REMARK  176  A    between atoms: _439  and  _440
REMARK  177  A    between atoms: _445  and  _447
REMARK  178  A    between atoms: _447  and  _448
REMARK  179  A    between atoms: _447  and  _450
REMARK  180  A    between atoms: _450  and  _451
REMARK  181  A    between atoms: _456  and  _457
REMARK  182  A    between atoms: _459  and  _461
REMARK  183  A    between atoms: _461  and  _462
REMARK  184  A    between atoms: _461  and  _464
REMARK  185  A    between atoms: _464  and  _465
REMARK  186  A    between atoms: _465  and  _466
REMARK  187  A    between atoms: _466  and  _467
REMARK  188  A    between atoms: _467  and  _468
REMARK  189  A    between atoms: _472  and  _474
REMARK  190  A    between atoms: _474  and  _475
REMARK  191  A    between atoms: _474  and  _477
REMARK  192  A    between atoms: _477  and  _478
REMARK  193  A    between atoms: _483  and  _484
REMARK  194  A    between atoms: _486  and  _488
REMARK  195  A    between atoms: _488  and  _489
REMARK  196  A    between atoms: _488  and  _491
REMARK  197  A    between atoms: _491  and  _492
REMARK  198  A    between atoms: _494  and  _496
REMARK  199  A    between atoms: _496  and  _497
REMARK  200  A    between atoms: _496  and  _499
REMARK  201  A    between atoms: _499  and  _500
REMARK  202  A    between atoms: _503  and  _505
REMARK  203  A    between atoms: _505  and  _506
REMARK  204  A    between atoms: _505  and  _508
REMARK  205  A    between atoms: _508  and  _509
REMARK  206  A    between atoms: _509  and  _510
REMARK  207  A    between atoms: _513  and  _515
REMARK  208  A    between atoms: _515  and  _516
REMARK  209  A    between atoms: _519  and  _521
REMARK  210  A    between atoms: _521  and  _522
REMARK  211  A    between atoms: _521  and  _524
REMARK  212  A    between atoms: _524  and  _525
REMARK  213  A    between atoms: _527  and  _529
REMARK  214  A    between atoms: _529  and  _530
REMARK  215  A    between atoms: _532  and  _534
REMARK  216  A    between atoms: _534  and  _535
REMARK  217  A    between atoms: _534  and  _537
REMARK  218  A    between atoms: _537  and  _538
REMARK  219  A    between atoms: _541  and  _543
REMARK  220  A    between atoms: _543  and  _544
REMARK  221  A    between atoms: _546  and  _548
REMARK  222  A    between atoms: _548  and  _549
REMARK  223  A    between atoms: _548  and  _551
REMARK  224  A    between atoms: _551  and  _552
REMARK  225  A    between atoms: _557  and  _559
REMARK  226  A    between atoms: _559  and  _560
REMARK  227  A    between atoms: _559  and  _562
REMARK  228  A    between atoms: _562  and  _563
REMARK  229  A    between atoms: _563  and  _564
REMARK  230  A    between atoms: _571  and  _572
REMARK  231  A    between atoms: _572  and  _588
REMARK  232  A    between atoms: _573  and  _575
REMARK  233  A    between atoms: _575  and  _576
REMARK  234  A    between atoms: _576  and  _577
REMARK  235  A    between atoms: _581  and  _583
REMARK  236  A    between atoms: _583  and  _584
REMARK  237  A    between atoms: _583  and  _591
REMARK  238  A    between atoms: _584  and  _585
REMARK  239  A    between atoms: _585  and  _586
REMARK  240  A    between atoms: _586  and  _587
REMARK  241  A    between atoms: _587  and  _588
REMARK  242  A    between atoms: _593  and  _595
REMARK  243  A    between atoms: _595  and  _596
REMARK  244  A    between atoms: _595  and  _598
REMARK  245  A    between atoms: _598  and  _599
REMARK  246  A    between atoms: _602  and  _604
REMARK  247  A    between atoms: _604  and  _605
REMARK  248  A    between atoms: _607  and  _609
REMARK  249  A    between atoms: _609  and  _610
REMARK  250  A    between atoms: _613  and  _615
REMARK  251  A    between atoms: _615  and  _616
REMARK  252  A    between atoms: _615  and  _618
REMARK  253  A    between atoms: _618  and  _619
REMARK  254  A    between atoms: _619  and  _620
REMARK  255  A    between atoms: _620  and  _621
REMARK  256  A    between atoms: _630  and  _632
REMARK  257  A    between atoms: _632  and  _633
REMARK  258  A    between atoms: _632  and  _635
REMARK  259  A    between atoms: _635  and  _636
REMARK  260  A    between atoms: _641  and  _642
REMARK                            x       y       z     vdW  Elec       q    Type
REMARK                         _______ _______ _______ _____ _____    ______ ____
ROOT
ATOM      1  C   TYR A   1      33.530  31.891  20.508  0.00  0.00    +0.239 C 
ATOM      2  N   LYS A   2      32.495  31.983  21.341  0.00  0.00    -0.298 N 
ATOM      3  H   LYS A   2      32.645  32.433  22.267  0.00  0.00    +0.150 HD
ATOM      4  O   TYR A   1      33.453  31.419  19.372  0.00  0.00    -0.274 OA
ENDROOT
BRANCH   1   5
ATOM      5  CA  TYR A   1      34.861  32.440  21.024  0.00  0.00    +0.149 C 
BRANCH   5   6
ATOM      6  N   TYR A   1      34.691  33.537  21.995  0.00  0.00    -0.238 NA
ATOM      7  H   TYR A   1      34.971  33.393  22.986  0.00  0.00    +0.142 HD
ENDBRANCH   5   6
BRANCH   5   8
ATOM      8  CB  TYR A   1      35.803  31.328  21.550  0.00  0.00    +0.053 C 
BRANCH   8   9
ATOM      9  CG  TYR A   1      35.186  30.202  22.367  0.00  0.00    -0.020 A 
ATOM     10  CD2 TYR A   1      35.245  30.210  23.758  0.00  0.00    -0.001 A 
ATOM     11  CE2 TYR A   1      34.705  29.169  24.516  0.00  0.00    +0.036 A 
ATOM     12  CZ  TYR A   1      34.120  28.100  23.874  0.00  0.00    +0.134 A 
ATOM     13  CE1 TYR A   1      34.067  28.058  22.483  0.00  0.00    +0.036 A 
ATOM     14  CD1 TYR A   1      34.602  29.098  21.743  0.00  0.00    -0.001 A 
BRANCH  12  15
ATOM     15  OH  TYR A   1      33.585  27.065  24.613  0.00  0.00    -0.506 OA
ATOM     16  HH  TYR A   1      33.208  26.384  24.001  0.00  0.00    +0.292 HD
ENDBRANCH  12  15
ENDBRANCH   8   9
ENDBRANCH   5   8
ENDBRANCH   1   5
BRANCH   2  17
ATOM     17  CA  LYS A   2      31.156  31.483  21.020  0.00  0.00    +0.137 C 
BRANCH  17  18
ATOM     18  C   LYS A   2      30.393  32.449  20.111  0.00  0.00    +0.227 C 
ATOM     19  O   LYS A   2      29.331  32.110  19.584  0.00  0.00    -0.286 OA
ENDBRANCH  17  18
BRANCH  17  20
ATOM     20  CB  LYS A   2      30.362  31.223  22.304  0.00  0.00    +0.028 C 
BRANCH  20  21
ATOM     21  CG  LYS A   2      30.920  30.105  23.183  0.00  0.00    -0.000 C 
BRANCH  21  22
ATOM     22  CD  LYS A   2      30.329  30.178  24.589  0.00  0.00    -0.024 C 
BRANCH  22  23
ATOM     23  CE  LYS A   2      30.869  29.093  25.527  0.00  0.00    -0.086 C 
BRANCH  23  24
ATOM     24  NZ  LYS A   2      30.280  27.757  25.205  0.00  0.00    +0.380 N 
ATOM     25  HZ1 LYS A   2      30.665  27.044  25.857  0.00  0.00    -0.089 HD
ATOM     26  HZ2 LYS A   2      29.246  27.801  25.309  0.00  0.00    -0.089 HD
ATOM     27  HZ3 LYS A   2      30.521  27.500  24.226  0.00  0.00    -0.089 HD
ENDBRANCH  23  24
ENDBRANCH  22  23
ENDBRANCH  21  22
ENDBRANCH  20  21
ENDBRANCH  17  20
ENDBRANCH   2  17
TORSDOF 12
REMARK  Name = ../refined-set-2016/3g2l/3g2l_pocket.pdb
REMARK  260 active torsions:
REMARK  status: ('A' for Active; 'I' for Inactive)
REMARK    1  A    between atoms: _1  and  _3
REMARK    2  A    between atoms: _3  and  _4
REMARK    3  A    between atoms: _3  and  _6
REMARK    4  A    between atoms: _6  and  _7
REMARK    5  A    between atoms: _12  and  _13
REMARK    6  A    between atoms: _15  and  _17
REMARK    7  A    between atoms: _17  and  _18
REMARK    8  A    between atoms: _17  and  _20
REMARK    9  A    between atoms: _20  and  _21
REMARK   10  A    between atoms: _21  and  _22
REMARK   11  A    between atoms: _25  and  _27
REMARK   12  A    between atoms: _27  and  _28
REMARK   13  A    between atoms: _27  and  _30
REMARK   14  A    between atoms: _30  and  _31
REMARK   15  A    between atoms: _36  and  _38
REMARK   16  A    between atoms: _38  and  _39
REMARK   17  A    between atoms: _41  and  _43
REMARK   18  A    between atoms: _43  and  _44
REMARK   19  A    between atoms: _46  and  _48
REMARK   20  A    between atoms: _48  and  _49
REMARK   21  A    between atoms: _48  and  _51
REMARK   22  A    between atoms: _51  and  _52
REMARK   23  A    between atoms: _55  and  _57
REMARK   24  A    between atoms: _57  and  _58
REMARK   25  A    between atoms: _60  and  _62
REMARK   26  A    between atoms: _62  and  _63
REMARK   27  A    between atoms: _62  and  _65
REMARK   28  A    between atoms: _65  and  _66
REMARK   29  A    between atoms: _66  and  _67
REMARK   30  A    between atoms: _67  and  _68
REMARK   31  A    between atoms: _77  and  _79
REMARK   32  A    between atoms: _79  and  _80
REMARK   33  A    between atoms: _79  and  _82
REMARK   34  A    between atoms: _82  and  _83
REMARK   35  A    between atoms: _86  and  _88
REMARK   36  A    between atoms: _88  and  _89
REMARK   37  A    between atoms: _92  and  _94
REMARK   38  A    between atoms: _94  and  _95
REMARK   39  A    between atoms: _94  and  _97
REMARK   40  A    between atoms: _97  and  _98
REMARK   41  A    between atoms: _104  and  _106
REMARK   42  A    between atoms: _106  and  _107
REMARK   43  A    between atoms: _106  and  _109
REMARK   44  A    between atoms: _109  and  _110
REMARK   45  A    between atoms: _115  and  _117
REMARK   46  A    between atoms: _117  and  _118
REMARK   47  A    between atoms: _117  and  _120
REMARK   48  A    between atoms: _120  and  _121
REMARK   49  A    between atoms: _124  and  _126
REMARK   50  A    between atoms: _126  and  _127
REMARK   51  A    between atoms: _126  and  _129
REMARK   52  A    between atoms: _129  and  _130
REMARK   53  A    between atoms: _135  and  _137
REMARK   54  A    between atoms: _137  and  _138
REMARK   55  A    between atoms: _137  and  _140
REMARK   56  A    between atoms: _140  and  _141
REMARK   57  A    between atoms: _147  and  _149
REMARK   58  A    between atoms: _149  and  _150
REMARK   59  A    between atoms: _149  and  _152
REMARK   60  A    between atoms: _152  and  _153
REMARK   61  A    between atoms: _159  and  _161
REMARK   62  A    between atoms: _161  and  _162
REMARK   63  A    between atoms: _161  and  _164
REMARK   64  A    between atoms: _164  and  _165
REMARK   65  A    between atoms: _165  and  _166
REMARK   66  A    between atoms: _169  and  _171
REMARK   67  A    between atoms: _171  and  _172
REMARK   68  A    between atoms: _171  and  _174
REMARK   69  A    between atoms: _174  and  _175
REMARK   70  A    between atoms: _175  and  _176
REMARK   71  A    between atoms: _176  and  _177
REMARK   72  A    between atoms: _186  and  _188
REMARK   73  A    between atoms: _188  and  _189
REMARK   74  A    between atoms: _188  and  _191
REMARK   75  A    between atoms: _191  and  _192
REMARK   76  A    between atoms: _197  and  _199
REMARK   77  A    between atoms: _199  and  _200
REMARK   78  A    between atoms: _199  and  _202
REMARK   79  A    between atoms: _202  and  _203
REMARK   80  A    between atoms: _206  and  _208
REMARK   81  A    between atoms: _208  and  _209
REMARK   82  A    between atoms: _208  and  _211
REMARK   83  A    between atoms: _211  and  _212
REMARK   84  A    between atoms: _215  and  _217
REMARK   85  A    between atoms: _217  and  _218
REMARK   86  A    between atoms: _217  and  _220
REMARK   87  A    between atoms: _220  and  _221
REMARK   88  A    between atoms: _226  and  _228
REMARK   89  A    between atoms: _228  and  _229
REMARK   90  A    between atoms: _228  and  _231
REMARK   91  A    between atoms: _231  and  _232
REMARK   92  A    between atoms: _235  and  _237
REMARK   93  A    between atoms: _237  and  _238
REMARK   94  A    between atoms: _237  and  _240
REMARK   95  A    between atoms: _240  and  _241
REMARK   96  A    between atoms: _246  and  _248
REMARK   97  A    between atoms: _248  and  _249
REMARK   98  A    between atoms: _248  and  _251
REMARK   99  A    between atoms: _251  and  _252
REMARK  100  A    between atoms: _257  and  _259
REMARK  101  A    between atoms: _259  and  _260
REMARK  102  A    between atoms: _259  and  _262
REMARK  103  A    between atoms: _262  and  _263
REMARK  104  A    between atoms: _266  and  _268
REMARK  105  A    between atoms: _268  and  _269
REMARK  106  A    between atoms: _268  and  _271
REMARK  107  A    between atoms: _274  and  _276
REMARK  108  A    between atoms: _276  and  _277
REMARK  109  A    between atoms: _276  and  _279
REMARK  110  A    between atoms: _279  and  _280
REMARK  111  A    between atoms: _284  and  _285
REMARK  112  A    between atoms: _290  and  _292
REMARK  113  A    between atoms: _292  and  _293
REMARK  114  A    between atoms: _292  and  _295
REMARK  115  A    between atoms: _295  and  _296
REMARK  116  A    between atoms: _296  and  _297
REMARK  117  A    between atoms: _300  and  _302
REMARK  118  A    between atoms: _302  and  _303
REMARK  119  A    between atoms: _306  and  _308
REMARK  120  A    between atoms: _308  and  _309
REMARK  121  A    between atoms: _308  and  _311
REMARK  122  A    between atoms: _311  and  _312
REMARK  123  A    between atoms: _315  and  _317
REMARK  124  A    between atoms: _317  and  _318
REMARK  125  A    between atoms: _317  and  _320
REMARK  126  A    between atoms: _320  and  _321
REMARK  127  A    between atoms: _321  and  _322
REMARK  128  A    between atoms: _325  and  _327
REMARK  129  A    between atoms: _327  and  _328
REMARK  130  A    between atoms: _327  and  _330
REMARK  131  A    between atoms: _330  and  _331
REMARK  132  A    between atoms: _336  and  _338
REMARK  133  A    between atoms: _338  and  _339
REMARK  134  A    between atoms: _341  and  _343
REMARK  135  A    between atoms: _343  and  _344
REMARK  136  A    between atoms: _343  and  _346
REMARK  137  A    between atoms: _349  and  _351
REMARK  138  A    between atoms: _351  and  _352
REMARK  139  A    between atoms: _355  and  _357
REMARK  140  A    between atoms: _357  and  _358
REMARK  141  A    between atoms: _357  and  _360
REMARK  142  A    between atoms: _360  and  _361
REMARK  143  A    between atoms: _366  and  _368
REMARK  144  A    between atoms: _368  and  _369
REMARK  145  A    between atoms: _368  and  _371
REMARK  146  A    between atoms: _371  and  _372
REMARK  147  A    between atoms: _372  and  _373
REMARK  148  A    between atoms: _373  and  _374
REMARK  149  A    between atoms: _374  and  _375
REMARK  150  A    between atoms: _379  and  _381
REMARK  151  A    between atoms: _381  and  _382
REMARK  152  A    between atoms: _381  and  _384
REMARK  153  A    between atoms: _384  and  _385
REMARK  154  A    between atoms: _388  and  _390
REMARK  155  A    between atoms: _390  and  _391
REMARK  156  A    between atoms: _390  and  _393
REMARK  157  A    between atoms: _393  and  _394
REMARK  158  A    between atoms: _399  and  _401
REMARK  159  A    between atoms: _401  and  _402
REMARK  160  A    between atoms: _404  and  _406
REMARK  161  A    between atoms: _406  and  _407
REMARK  162  A    between atoms: _406  and  _409
REMARK  163  A    between atoms: _409  and  _410
REMARK  164  A    between atoms: _410  and  _411
REMARK  165  A    between atoms: _411  and  _412
REMARK  166  A    between atoms: _412  and  _413
REMARK  167  A    between atoms: _417  and  _419
REMARK  168  A    between atoms: _419  and  _420
REMARK  169  A    between atoms: _419  and  _422
REMARK  170  A    between atoms: _422  and  _423
REMARK  171  A    between atoms: _423  and  _424
REMARK  172  A    between atoms: _424  and  _425
REMARK  173  A    between atoms: _434  and  _436
REMARK  174  A    between atoms: _436  and  _437
REMARK  175  A    between atoms: _436  and  _439
REMARK  176  A    between atoms: _439  and  _440
REMARK  177  A    between atoms: _445  and  _447
REMARK  178  A    between atoms: _447  and  _448
REMARK  179  A    between atoms: _447  and  _450
REMARK  180  A    between atoms: _450  and  _451
REMARK  181  A    between atoms: _456  and  _457
REMARK  182  A    between atoms: _459  and  _461
REMARK  183  A    between atoms: _461  and  _462
REMARK  184  A    between atoms: _461  and  _464
REMARK  185  A    between atoms: _464  and  _465
REMARK  186  A    between atoms: _465  and  _466
REMARK  187  A    between atoms: _466  and  _467
REMARK  188  A    between atoms: _467  and  _468
REMARK  189  A    between atoms: _472  and  _474
REMARK  190  A    between atoms: _474  and  _475
REMARK  191  A    between atoms: _474  and  _477
REMARK  192  A    between atoms: _477  and  _478
REMARK  193  A    between atoms: _483  and  _484
REMARK  194  A    between atoms: _486  and  _488
REMARK  195  A    between atoms: _488  and  _489
REMARK  196  A    between atoms: _488  and  _491
REMARK  197  A    between atoms: _491  and  _492
REMARK  198  A    between atoms: _494  and  _496
REMARK  199  A    between atoms: _496  and  _497
REMARK  200  A    between atoms: _496  and  _499
REMARK  201  A    between atoms: _499  and  _500
REMARK  202  A    between atoms: _503  and  _505
REMARK  203  A    between atoms: _505  and  _506
REMARK  204  A    between atoms: _505  and  _508
REMARK  205  A    between atoms: _508  and  _509
REMARK  206  A    between atoms: _509  and  _510
REMARK  207  A    between atoms: _513  and  _515
REMARK  208  A    between atoms: _515  and  _516
REMARK  209  A    between atoms: _519  and  _521
REMARK  210  A    between atoms: _521  and  _522
REMARK  211  A    between atoms: _521  and  _524
REMARK  212  A    between atoms: _524  and  _525
REMARK  213  A    between atoms: _527  and  _529
REMARK  214  A    between atoms: _529  and  _530
REMARK  215  A    between atoms: _532  and  _534
REMARK  216  A    between atoms: _534  and  _535
REMARK  217  A    between atoms: _534  and  _537
REMARK  218  A    between atoms: _537  and  _538
REMARK  219  A    between atoms: _541  and  _543
REMARK  220  A    between atoms: _543  and  _544
REMARK  221  A    between atoms: _546  and  _548
REMARK  222  A    between atoms: _548  and  _549
REMARK  223  A    between atoms: _548  and  _551
REMARK  224  A    between atoms: _551  and  _552
REMARK  225  A    between atoms: _557  and  _559
REMARK  226  A    between atoms: _559  and  _560
REMARK  227  A    between atoms: _559  and  _562
REMARK  228  A    between atoms: _562  and  _563
REMARK  229  A    between atoms: _563  and  _564
REMARK  230  A    between atoms: _571  and  _572
REMARK  231  A    between atoms: _572  and  _588
REMARK  232  A    between atoms: _573  and  _575
REMARK  233  A    between atoms: _575  and  _576
REMARK  234  A    between atoms: _576  and  _577
REMARK  235  A    between atoms: _581  and  _583
REMARK  236  A    between atoms: _583  and  _584
REMARK  237  A    between atoms: _583  and  _591
REMARK  238  A    between atoms: _584  and  _585
REMARK  239  A    between atoms: _585  and  _586
REMARK  240  A    between atoms: _586  and  _587
REMARK  241  A    between atoms: _587  and  _588
REMARK  242  A    between atoms: _593  and  _595
REMARK  243  A    between atoms: _595  and  _596
REMARK  244  A    between atoms: _595  and  _598
REMARK  245  A    between atoms: _598  and  _599
REMARK  246  A    between atoms: _602  and  _604
REMARK  247  A    between atoms: _604  and  _605
REMARK  248  A    between atoms: _607  and  _609
REMARK  249  A    between atoms: _609  and  _610
REMARK  250  A    between atoms: _613  and  _615
REMARK  251  A    between atoms: _615  and  _616
REMARK  252  A    between atoms: _615  and  _618
REMARK  253  A    between atoms: _618  and  _619
REMARK  254  A    between atoms: _619  and  _620
REMARK  255  A    between atoms: _620  and  _621
REMARK  256  A    between atoms: _630  and  _632
REMARK  257  A    between atoms: _632  and  _633
REMARK  258  A    between atoms: _632  and  _635
REMARK  259  A    between atoms: _635  and  _636
REMARK  260  A    between atoms: _641  and  _642
REMARK                            x       y       z     vdW  Elec       q    Type
REMARK                         _______ _______ _______ _____ _____    ______ ____
ROOT
ATOM      1  CG  TYR A   1      34.839  37.505  30.141  0.00  0.00    -0.020 A 
ATOM      2  CD2 TYR A   1      34.489  36.261  29.613  0.00  0.00    -0.001 A 
ATOM      3  CE2 TYR A   1      34.794  35.917  28.301  0.00  0.00    +0.036 A 
ATOM      4  CZ  TYR A   1      35.480  36.813  27.503  0.00  0.00    +0.134 A 
ATOM      5  CE1 TYR A   1      35.857  38.058  28.001  0.00  0.00    +0.036 A 
ATOM      6  CD1 TYR A   1      35.534  38.397  29.316  0.00  0.00    -0.001 A 
ENDROOT
BRANCH   4   7
ATOM      7  OH  TYR A   1      35.782  36.459  26.206  0.00  0.00    -0.506 OA
ATOM      8  HH  TYR A   1      35.358  37.101  25.583  0.00  0.00    +0.292 HD
ENDBRANCH   4   7
BRANCH   1   9
ATOM      9  CB  TYR A   1      34.472  37.854  31.576  0.00  0.00    +0.051 C 
BRANCH   9  10
ATOM     10  CA  TYR A   1      35.066  39.143  32.155  0.00  0.00    +0.137 C 
BRANCH  10  11
ATOM     11  N   TYR A   1      34.889  39.156  33.600  0.00  0.00    -0.239 NA
ATOM     12  H   TYR A   1      34.026  38.734  33.999  0.00  0.00    +0.142 HD
ENDBRANCH  10  11
BRANCH  10  13
ATOM     13  C   TYR A   1      34.366  40.374  31.581  0.00  0.00    +0.224 C 
ATOM     14  O   TYR A   1      33.159  40.347  31.294  0.00  0.00    -0.287 OA
ENDBRANCH  10  13
ENDBRANCH   9  10
ENDBRANCH   1   9
TORSDOF 5
REMARK  Name = ../refined-set-2016/3g2l/3g2l_pocket.pdb
REMARK  260 active torsions:
REMARK  status: ('A' for Active; 'I' for Inactive)
REMARK    1  A    between atoms: _1  and  _3
REMARK    2  A    between atoms: _3  and  _4
REMARK    3  A    between atoms: _3  and  _6
REMARK    4  A    between atoms: _6  and  _7
REMARK    5  A    between atoms: _12  and  _13
REMARK    6  A    between atoms: _15  and  _17
REMARK    7  A    between atoms: _17  and  _18
REMARK    8  A    between atoms: _17  and  _20
REMARK    9  A    between atoms: _20  and  _21
REMARK   10  A    between atoms: _21  and  _22
REMARK   11  A    between atoms: _25  and  _27
REMARK   12  A    between atoms: _27  and  _28
REMARK   13  A    between atoms: _27  and  _30
REMARK   14  A    between atoms: _30  and  _31
REMARK   15  A    between atoms: _36  and  _38
REMARK   16  A    between atoms: _38  and  _39
REMARK   17  A    between atoms: _41  and  _43
REMARK   18  A    between atoms: _43  and  _44
REMARK   19  A    between atoms: _46  and  _48
REMARK   20  A    between atoms: _48  and  _49
REMARK   21  A    between atoms: _48  and  _51
REMARK   22  A    between atoms: _51  and  _52
REMARK   23  A    between atoms: _55  and  _57
REMARK   24  A    between atoms: _57  and  _58
REMARK   25  A    between atoms: _60  and  _62
REMARK   26  A    between atoms: _62  and  _63
REMARK   27  A    between atoms: _62  and  _65
REMARK   28  A    between atoms: _65  and  _66
REMARK   29  A    between atoms: _66  and  _67
REMARK   30  A    between atoms: _67  and  _68
REMARK   31  A    between atoms: _77  and  _79
REMARK   32  A    between atoms: _79  and  _80
REMARK   33  A    between atoms: _79  and  _82
REMARK   34  A    between atoms: _82  and  _83
REMARK   35  A    between atoms: _86  and  _88
REMARK   36  A    between atoms: _88  and  _89
REMARK   37  A    between atoms: _92  and  _94
REMARK   38  A    between atoms: _94  and  _95
REMARK   39  A    between atoms: _94  and  _97
REMARK   40  A    between atoms: _97  and  _98
REMARK   41  A    between atoms: _104  and  _106
REMARK   42  A    between atoms: _106  and  _107
REMARK   43  A    between atoms: _106  and  _109
REMARK   44  A    between atoms: _109  and  _110
REMARK   45  A    between atoms: _115  and  _117
REMARK   46  A    between atoms: _117  and  _118
REMARK   47  A    between atoms: _117  and  _120
REMARK   48  A    between atoms: _120  and  _121
REMARK   49  A    between atoms: _124  and  _126
REMARK   50  A    between atoms: _126  and  _127
REMARK   51  A    between atoms: _126  and  _129
REMARK   52  A    between atoms: _129  and  _130
REMARK   53  A    between atoms: _135  and  _137
REMARK   54  A    between atoms: _137  and  _138
REMARK   55  A    between atoms: _137  and  _140
REMARK   56  A    between atoms: _140  and  _141
REMARK   57  A    between atoms: _147  and  _149
REMARK   58  A    between atoms: _149  and  _150
REMARK   59  A    between atoms: _149  and  _152
REMARK   60  A    between atoms: _152  and  _153
REMARK   61  A    between atoms: _159  and  _161
REMARK   62  A    between atoms: _161  and  _162
REMARK   63  A    between atoms: _161  and  _164
REMARK   64  A    between atoms: _164  and  _165
REMARK   65  A    between atoms: _165  and  _166
REMARK   66  A    between atoms: _169  and  _171
REMARK   67  A    between atoms: _171  and  _172
REMARK   68  A    between atoms: _171  and  _174
REMARK   69  A    between atoms: _174  and  _175
REMARK   70  A    between atoms: _175  and  _176
REMARK   71  A    between atoms: _176  and  _177
REMARK   72  A    between atoms: _186  and  _188
REMARK   73  A    between atoms: _188  and  _189
REMARK   74  A    between atoms: _188  and  _191
REMARK   75  A    between atoms: _191  and  _192
REMARK   76  A    between atoms: _197  and  _199
REMARK   77  A    between atoms: _199  and  _200
REMARK   78  A    between atoms: _199  and  _202
REMARK   79  A    between atoms: _202  and  _203
REMARK   80  A    between atoms: _206  and  _208
REMARK   81  A    between atoms: _208  and  _209
REMARK   82  A    between atoms: _208  and  _211
REMARK   83  A    between atoms: _211  and  _212
REMARK   84  A    between atoms: _215  and  _217
REMARK   85  A    between atoms: _217  and  _218
REMARK   86  A    between atoms: _217  and  _220
REMARK   87  A    between atoms: _220  and  _221
REMARK   88  A    between atoms: _226  and  _228
REMARK   89  A    between atoms: _228  and  _229
REMARK   90  A    between atoms: _228  and  _231
REMARK   91  A    between atoms: _231  and  _232
REMARK   92  A    between atoms: _235  and  _237
REMARK   93  A    between atoms: _237  and  _238
REMARK   94  A    between atoms: _237  and  _240
REMARK   95  A    between atoms: _240  and  _241
REMARK   96  A    between atoms: _246  and  _248
REMARK   97  A    between atoms: _248  and  _249
REMARK   98  A    between atoms: _248  and  _251
REMARK   99  A    between atoms: _251  and  _252
REMARK  100  A    between atoms: _257  and  _259
REMARK  101  A    between atoms: _259  and  _260
REMARK  102  A    between atoms: _259  and  _262
REMARK  103  A    between atoms: _262  and  _263
REMARK  104  A    between atoms: _266  and  _268
REMARK  105  A    between atoms: _268  and  _269
REMARK  106  A    between atoms: _268  and  _271
REMARK  107  A    between atoms: _274  and  _276
REMARK  108  A    between atoms: _276  and  _277
REMARK  109  A    between atoms: _276  and  _279
REMARK  110  A    between atoms: _279  and  _280
REMARK  111  A    between atoms: _284  and  _285
REMARK  112  A    between atoms: _290  and  _292
REMARK  113  A    between atoms: _292  and  _293
REMARK  114  A    between atoms: _292  and  _295
REMARK  115  A    between atoms: _295  and  _296
REMARK  116  A    between atoms: _296  and  _297
REMARK  117  A    between atoms: _300  and  _302
REMARK  118  A    between atoms: _302  and  _303
REMARK  119  A    between atoms: _306  and  _308
REMARK  120  A    between atoms: _308  and  _309
REMARK  121  A    between atoms: _308  and  _311
REMARK  122  A    between atoms: _311  and  _312
REMARK  123  A    between atoms: _315  and  _317
REMARK  124  A    between atoms: _317  and  _318
REMARK  125  A    between atoms: _317  and  _320
REMARK  126  A    between atoms: _320  and  _321
REMARK  127  A    between atoms: _321  and  _322
REMARK  128  A    between atoms: _325  and  _327
REMARK  129  A    between atoms: _327  and  _328
REMARK  130  A    between atoms: _327  and  _330
REMARK  131  A    between atoms: _330  and  _331
REMARK  132  A    between atoms: _336  and  _338
REMARK  133  A    between atoms: _338  and  _339
REMARK  134  A    between atoms: _341  and  _343
REMARK  135  A    between atoms: _343  and  _344
REMARK  136  A    between atoms: _343  and  _346
REMARK  137  A    between atoms: _349  and  _351
REMARK  138  A    between atoms: _351  and  _352
REMARK  139  A    between atoms: _355  and  _357
REMARK  140  A    between atoms: _357  and  _358
REMARK  141  A    between atoms: _357  and  _360
REMARK  142  A    between atoms: _360  and  _361
REMARK  143  A    between atoms: _366  and  _368
REMARK  144  A    between atoms: _368  and  _369
REMARK  145  A    between atoms: _368  and  _371
REMARK  146  A    between atoms: _371  and  _372
REMARK  147  A    between atoms: _372  and  _373
REMARK  148  A    between atoms: _373  and  _374
REMARK  149  A    between atoms: _374  and  _375
REMARK  150  A    between atoms: _379  and  _381
REMARK  151  A    between atoms: _381  and  _382
REMARK  152  A    between atoms: _381  and  _384
REMARK  153  A    between atoms: _384  and  _385
REMARK  154  A    between atoms: _388  and  _390
REMARK  155  A    between atoms: _390  and  _391
REMARK  156  A    between atoms: _390  and  _393
REMARK  157  A    between atoms: _393  and  _394
REMARK  158  A    between atoms: _399  and  _401
REMARK  159  A    between atoms: _401  and  _402
REMARK  160  A    between atoms: _404  and  _406
REMARK  161  A    between atoms: _406  and  _407
REMARK  162  A    between atoms: _406  and  _409
REMARK  163  A    between atoms: _409  and  _410
REMARK  164  A    between atoms: _410  and  _411
REMARK  165  A    between atoms: _411  and  _412
REMARK  166  A    between atoms: _412  and  _413
REMARK  167  A    between atoms: _417  and  _419
REMARK  168  A    between atoms: _419  and  _420
REMARK  169  A    between atoms: _419  and  _422
REMARK  170  A    between atoms: _422  and  _423
REMARK  171  A    between atoms: _423  and  _424
REMARK  172  A    between atoms: _424  and  _425
REMARK  173  A    between atoms: _434  and  _436
REMARK  174  A    between atoms: _436  and  _437
REMARK  175  A    between atoms: _436  and  _439
REMARK  176  A    between atoms: _439  and  _440
REMARK  177  A    between atoms: _445  and  _447
REMARK  178  A    between atoms: _447  and  _448
REMARK  179  A    between atoms: _447  and  _450
REMARK  180  A    between atoms: _450  and  _451
REMARK  181  A    between atoms: _456  and  _457
REMARK  182  A    between atoms: _459  and  _461
REMARK  183  A    between atoms: _461  and  _462
REMARK  184  A    between atoms: _461  and  _464
REMARK  185  A    between atoms: _464  and  _465
REMARK  186  A    between atoms: _465  and  _466
REMARK  187  A    between atoms: _466  and  _467
REMARK  188  A    between atoms: _467  and  _468
REMARK  189  A    between atoms: _472  and  _474
REMARK  190  A    between atoms: _474  and  _475
REMARK  191  A    between atoms: _474  and  _477
REMARK  192  A    between atoms: _477  and  _478
REMARK  193  A    between atoms: _483  and  _484
REMARK  194  A    between atoms: _486  and  _488
REMARK  195  A    between atoms: _488  and  _489
REMARK  196  A    between atoms: _488  and  _491
REMARK  197  A    between atoms: _491  and  _492
REMARK  198  A    between atoms: _494  and  _496
REMARK  199  A    between atoms: _496  and  _497
REMARK  200  A    between atoms: _496  and  _499
REMARK  201  A    between atoms: _499  and  _500
REMARK  202  A    between atoms: _503  and  _505
REMARK  203  A    between atoms: _505  and  _506
REMARK  204  A    between atoms: _505  and  _508
REMARK  205  A    between atoms: _508  and  _509
REMARK  206  A    between atoms: _509  and  _510
REMARK  207  A    between atoms: _513  and  _515
REMARK  208  A    between atoms: _515  and  _516
REMARK  209  A    between atoms: _519  and  _521
REMARK  210  A    between atoms: _521  and  _522
REMARK  211  A    between atoms: _521  and  _524
REMARK  212  A    between atoms: _524  and  _525
REMARK  213  A    between atoms: _527  and  _529
REMARK  214  A    between atoms: _529  and  _530
REMARK  215  A    between atoms: _532  and  _534
REMARK  216  A    between atoms: _534  and  _535
REMARK  217  A    between atoms: _534  and  _537
REMARK  218  A    between atoms: _537  and  _538
REMARK  219  A    between atoms: _541  and  _543
REMARK  220  A    between atoms: _543  and  _544
REMARK  221  A    between atoms: _546  and  _548
REMARK  222  A    between atoms: _548  and  _549
REMARK  223  A    between atoms: _548  and  _551
REMARK  224  A    between atoms: _551  and  _552
REMARK  225  A    between atoms: _557  and  _559
REMARK  226  A    between atoms: _559  and  _560
REMARK  227  A    between atoms: _559  and  _562
REMARK  228  A    between atoms: _562  and  _563
REMARK  229  A    between atoms: _563  and  _564
REMARK  230  A    between atoms: _571  and  _572
REMARK  231  A    between atoms: _572  and  _588
REMARK  232  A    between atoms: _573  and  _575
REMARK  233  A    between atoms: _575  and  _576
REMARK  234  A    between atoms: _576  and  _577
REMARK  235  A    between atoms: _581  and  _583
REMARK  236  A    between atoms: _583  and  _584
REMARK  237  A    between atoms: _583  and  _591
REMARK  238  A    between atoms: _584  and  _585
REMARK  239  A    between atoms: _585  and  _586
REMARK  240  A    between atoms: _586  and  _587
REMARK  241  A    between atoms: _587  and  _588
REMARK  242  A    between atoms: _593  and  _595
REMARK  243  A    between atoms: _595  and  _596
REMARK  244  A    between atoms: _595  and  _598
REMARK  245  A    between atoms: _598  and  _599
REMARK  246  A    between atoms: _602  and  _604
REMARK  247  A    between atoms: _604  and  _605
REMARK  248  A    between atoms: _607  and  _609
REMARK  249  A    between atoms: _609  and  _610
REMARK  250  A    between atoms: _613  and  _615
REMARK  251  A    between atoms: _615  and  _616
REMARK  252  A    between atoms: _615  and  _618
REMARK  253  A    between atoms: _618  and  _619
REMARK  254  A    between atoms: _619  and  _620
REMARK  255  A    between atoms: _620  and  _621
REMARK  256  A    between atoms: _630  and  _632
REMARK  257  A    between atoms: _632  and  _633
REMARK  258  A    between atoms: _632  and  _635
REMARK  259  A    between atoms: _635  and  _636
REMARK  260  A    between atoms: _641  and  _642
REMARK                            x       y       z     vdW  Elec       q    Type
REMARK                         _______ _______ _______ _____ _____    ______ ____
ROOT
ATOM      1  CA  SER A   1      31.840  29.363  17.366  0.00  0.00    +0.163 C 
ENDROOT
BRANCH   1   2
ATOM      2  N   SER A   1      30.461  29.197  16.932  0.00  0.00    -0.237 NA
ATOM      3  H   SER A   1      29.933  28.366  17.266  0.00  0.00    +0.142 HD
ENDBRANCH   1   2
BRANCH   1   4
ATOM      4  C   SER A   1      32.800  29.379  16.172  0.00  0.00    +0.227 C 
ATOM      5  O   SER A   1      32.572  28.702  15.172  0.00  0.00    -0.287 OA
ENDBRANCH   1   4
BRANCH   1   6
ATOM      6  CB  SER A   1      32.221  28.226  18.313  0.00  0.00    +0.162 C 
BRANCH   6   7
ATOM      7  OG  SER A   1      32.021  26.966  17.681  0.00  0.00    -0.380 OA
ATOM      8  H   SER A   1      31.068  26.872  17.430  0.00  0.00    +0.211 HD
ENDBRANCH   6   7
ENDBRANCH   1   6
TORSDOF 4
REMARK  Name = ../refined-set-2016/3g2l/3g2l_pocket.pdb
REMARK  260 active torsions:
REMARK  status: ('A' for Active; 'I' for Inactive)
REMARK    1  A    between atoms: _1  and  _3
REMARK    2  A    between atoms: _3  and  _4
REMARK    3  A    between atoms: _3  and  _6
REMARK    4  A    between atoms: _6  and  _7
REMARK    5  A    between atoms: _12  and  _13
REMARK    6  A    between atoms: _15  and  _17
REMARK    7  A    between atoms: _17  and  _18
REMARK    8  A    between atoms: _17  and  _20
REMARK    9  A    between atoms: _20  and  _21
REMARK   10  A    between atoms: _21  and  _22
REMARK   11  A    between atoms: _25  and  _27
REMARK   12  A    between atoms: _27  and  _28
REMARK   13  A    between atoms: _27  and  _30
REMARK   14  A    between atoms: _30  and  _31
REMARK   15  A    between atoms: _36  and  _38
REMARK   16  A    between atoms: _38  and  _39
REMARK   17  A    between atoms: _41  and  _43
REMARK   18  A    between atoms: _43  and  _44
REMARK   19  A    between atoms: _46  and  _48
REMARK   20  A    between atoms: _48  and  _49
REMARK   21  A    between atoms: _48  and  _51
REMARK   22  A    between atoms: _51  and  _52
REMARK   23  A    between atoms: _55  and  _57
REMARK   24  A    between atoms: _57  and  _58
REMARK   25  A    between atoms: _60  and  _62
REMARK   26  A    between atoms: _62  and  _63
REMARK   27  A    between atoms: _62  and  _65
REMARK   28  A    between atoms: _65  and  _66
REMARK   29  A    between atoms: _66  and  _67
REMARK   30  A    between atoms: _67  and  _68
REMARK   31  A    between atoms: _77  and  _79
REMARK   32  A    between atoms: _79  and  _80
REMARK   33  A    between atoms: _79  and  _82
REMARK   34  A    between atoms: _82  and  _83
REMARK   35  A    between atoms: _86  and  _88
REMARK   36  A    between atoms: _88  and  _89
REMARK   37  A    between atoms: _92  and  _94
REMARK   38  A    between atoms: _94  and  _95
REMARK   39  A    between atoms: _94  and  _97
REMARK   40  A    between atoms: _97  and  _98
REMARK   41  A    between atoms: _104  and  _106
REMARK   42  A    between atoms: _106  and  _107
REMARK   43  A    between atoms: _106  and  _109
REMARK   44  A    between atoms: _109  and  _110
REMARK   45  A    between atoms: _115  and  _117
REMARK   46  A    between atoms: _117  and  _118
REMARK   47  A    between atoms: _117  and  _120
REMARK   48  A    between atoms: _120  and  _121
REMARK   49  A    between atoms: _124  and  _126
REMARK   50  A    between atoms: _126  and  _127
REMARK   51  A    between atoms: _126  and  _129
REMARK   52  A    between atoms: _129  and  _130
REMARK   53  A    between atoms: _135  and  _137
REMARK   54  A    between atoms: _137  and  _138
REMARK   55  A    between atoms: _137  and  _140
REMARK   56  A    between atoms: _140  and  _141
REMARK   57  A    between atoms: _147  and  _149
REMARK   58  A    between atoms: _149  and  _150
REMARK   59  A    between atoms: _149  and  _152
REMARK   60  A    between atoms: _152  and  _153
REMARK   61  A    between atoms: _159  and  _161
REMARK   62  A    between atoms: _161  and  _162
REMARK   63  A    between atoms: _161  and  _164
REMARK   64  A    between atoms: _164  and  _165
REMARK   65  A    between atoms: _165  and  _166
REMARK   66  A    between atoms: _169  and  _171
REMARK   67  A    between atoms: _171  and  _172
REMARK   68  A    between atoms: _171  and  _174
REMARK   69  A    between atoms: _174  and  _175
REMARK   70  A    between atoms: _175  and  _176
REMARK   71  A    between atoms: _176  and  _177
REMARK   72  A    between atoms: _186  and  _188
REMARK   73  A    between atoms: _188  and  _189
REMARK   74  A    between atoms: _188  and  _191
REMARK   75  A    between atoms: _191  and  _192
REMARK   76  A    between atoms: _197  and  _199
REMARK   77  A    between atoms: _199  and  _200
REMARK   78  A    between atoms: _199  and  _202
REMARK   79  A    between atoms: _202  and  _203
REMARK   80  A    between atoms: _206  and  _208
REMARK   81  A    between atoms: _208  and  _209
REMARK   82  A    between atoms: _208  and  _211
REMARK   83  A    between atoms: _211  and  _212
REMARK   84  A    between atoms: _215  and  _217
REMARK   85  A    between atoms: _217  and  _218
REMARK   86  A    between atoms: _217  and  _220
REMARK   87  A    between atoms: _220  and  _221
REMARK   88  A    between atoms: _226  and  _228
REMARK   89  A    between atoms: _228  and  _229
REMARK   90  A    between atoms: _228  and  _231
REMARK   91  A    between atoms: _231  and  _232
REMARK   92  A    between atoms: _235  and  _237
REMARK   93  A    between atoms: _237  and  _238
REMARK   94  A    between atoms: _237  and  _240
REMARK   95  A    between atoms: _240  and  _241
REMARK   96  A    between atoms: _246  and  _248
REMARK   97  A    between atoms: _248  and  _249
REMARK   98  A    between atoms: _248  and  _251
REMARK   99  A    between atoms: _251  and  _252
REMARK  100  A    between atoms: _257  and  _259
REMARK  101  A    between atoms: _259  and  _260
REMARK  102  A    between atoms: _259  and  _262
REMARK  103  A    between atoms: _262  and  _263
REMARK  104  A    between atoms: _266  and  _268
REMARK  105  A    between atoms: _268  and  _269
REMARK  106  A    between atoms: _268  and  _271
REMARK  107  A    between atoms: _274  and  _276
REMARK  108  A    between atoms: _276  and  _277
REMARK  109  A    between atoms: _276  and  _279
REMARK  110  A    between atoms: _279  and  _280
REMARK  111  A    between atoms: _284  and  _285
REMARK  112  A    between atoms: _290  and  _292
REMARK  113  A    between atoms: _292  and  _293
REMARK  114  A    between atoms: _292  and  _295
REMARK  115  A    between atoms: _295  and  _296
REMARK  116  A    between atoms: _296  and  _297
REMARK  117  A    between atoms: _300  and  _302
REMARK  118  A    between atoms: _302  and  _303
REMARK  119  A    between atoms: _306  and  _308
REMARK  120  A    between atoms: _308  and  _309
REMARK  121  A    between atoms: _308  and  _311
REMARK  122  A    between atoms: _311  and  _312
REMARK  123  A    between atoms: _315  and  _317
REMARK  124  A    between atoms: _317  and  _318
REMARK  125  A    between atoms: _317  and  _320
REMARK  126  A    between atoms: _320  and  _321
REMARK  127  A    between atoms: _321  and  _322
REMARK  128  A    between atoms: _325  and  _327
REMARK  129  A    between atoms: _327  and  _328
REMARK  130  A    between atoms: _327  and  _330
REMARK  131  A    between atoms: _330  and  _331
REMARK  132  A    between atoms: _336  and  _338
REMARK  133  A    between atoms: _338  and  _339
REMARK  134  A    between atoms: _341  and  _343
REMARK  135  A    between atoms: _343  and  _344
REMARK  136  A    between atoms: _343  and  _346
REMARK  137  A    between atoms: _349  and  _351
REMARK  138  A    between atoms: _351  and  _352
REMARK  139  A    between atoms: _355  and  _357
REMARK  140  A    between atoms: _357  and  _358
REMARK  141  A    between atoms: _357  and  _360
REMARK  142  A    between atoms: _360  and  _361
REMARK  143  A    between atoms: _366  and  _368
REMARK  144  A    between atoms: _368  and  _369
REMARK  145  A    between atoms: _368  and  _371
REMARK  146  A    between atoms: _371  and  _372
REMARK  147  A    between atoms: _372  and  _373
REMARK  148  A    between atoms: _373  and  _374
REMARK  149  A    between atoms: _374  and  _375
REMARK  150  A    between atoms: _379  and  _381
REMARK  151  A    between atoms: _381  and  _382
REMARK  152  A    between atoms: _381  and  _384
REMARK  153  A    between atoms: _384  and  _385
REMARK  154  A    between atoms: _388  and  _390
REMARK  155  A    between atoms: _390  and  _391
REMARK  156  A    between atoms: _390  and  _393
REMARK  157  A    between atoms: _393  and  _394
REMARK  158  A    between atoms: _399  and  _401
REMARK  159  A    between atoms: _401  and  _402
REMARK  160  A    between atoms: _404  and  _406
REMARK  161  A    between atoms: _406  and  _407
REMARK  162  A    between atoms: _406  and  _409
REMARK  163  A    between atoms: _409  and  _410
REMARK  164  A    between atoms: _410  and  _411
REMARK  165  A    between atoms: _411  and  _412
REMARK  166  A    between atoms: _412  and  _413
REMARK  167  A    between atoms: _417  and  _419
REMARK  168  A    between atoms: _419  and  _420
REMARK  169  A    between atoms: _419  and  _422
REMARK  170  A    between atoms: _422  and  _423
REMARK  171  A    between atoms: _423  and  _424
REMARK  172  A    between atoms: _424  and  _425
REMARK  173  A    between atoms: _434  and  _436
REMARK  174  A    between atoms: _436  and  _437
REMARK  175  A    between atoms: _436  and  _439
REMARK  176  A    between atoms: _439  and  _440
REMARK  177  A    between atoms: _445  and  _447
REMARK  178  A    between atoms: _447  and  _448
REMARK  179  A    between atoms: _447  and  _450
REMARK  180  A    between atoms: _450  and  _451
REMARK  181  A    between atoms: _456  and  _457
REMARK  182  A    between atoms: _459  and  _461
REMARK  183  A    between atoms: _461  and  _462
REMARK  184  A    between atoms: _461  and  _464
REMARK  185  A    between atoms: _464  and  _465
REMARK  186  A    between atoms: _465  and  _466
REMARK  187  A    between atoms: _466  and  _467
REMARK  188  A    between atoms: _467  and  _468
REMARK  189  A    between atoms: _472  and  _474
REMARK  190  A    between atoms: _474  and  _475
REMARK  191  A    between atoms: _474  and  _477
REMARK  192  A    between atoms: _477  and  _478
REMARK  193  A    between atoms: _483  and  _484
REMARK  194  A    between atoms: _486  and  _488
REMARK  195  A    between atoms: _488  and  _489
REMARK  196  A    between atoms: _488  and  _491
REMARK  197  A    between atoms: _491  and  _492
REMARK  198  A    between atoms: _494  and  _496
REMARK  199  A    between atoms: _496  and  _497
REMARK  200  A    between atoms: _496  and  _499
REMARK  201  A    between atoms: _499  and  _500
REMARK  202  A    between atoms: _503  and  _505
REMARK  203  A    between atoms: _505  and  _506
REMARK  204  A    between atoms: _505  and  _508
REMARK  205  A    between atoms: _508  and  _509
REMARK  206  A    between atoms: _509  and  _510
REMARK  207  A    between atoms: _513  and  _515
REMARK  208  A    between atoms: _515  and  _516
REMARK  209  A    between atoms: _519  and  _521
REMARK  210  A    between atoms: _521  and  _522
REMARK  211  A    between atoms: _521  and  _524
REMARK  212  A    between atoms: _524  and  _525
REMARK  213  A    between atoms: _527  and  _529
REMARK  214  A    between atoms: _529  and  _530
REMARK  215  A    between atoms: _532  and  _534
REMARK  216  A    between atoms: _534  and  _535
REMARK  217  A    between atoms: _534  and  _537
REMARK  218  A    between atoms: _537  and  _538
REMARK  219  A    between atoms: _541  and  _543
REMARK  220  A    between atoms: _543  and  _544
REMARK  221  A    between atoms: _546  and  _548
REMARK  222  A    between atoms: _548  and  _549
REMARK  223  A    between atoms: _548  and  _551
REMARK  224  A    between atoms: _551  and  _552
REMARK  225  A    between atoms: _557  and  _559
REMARK  226  A    between atoms: _559  and  _560
REMARK  227  A    between atoms: _559  and  _562
REMARK  228  A    between atoms: _562  and  _563
REMARK  229  A    between atoms: _563  and  _564
REMARK  230  A    between atoms: _571  and  _572
REMARK  231  A    between atoms: _572  and  _588
REMARK  232  A    between atoms: _573  and  _575
REMARK  233  A    between atoms: _575  and  _576
REMARK  234  A    between atoms: _576  and  _577
REMARK  235  A    between atoms: _581  and  _583
REMARK  236  A    between atoms: _583  and  _584
REMARK  237  A    between atoms: _583  and  _591
REMARK  238  A    between atoms: _584  and  _585
REMARK  239  A    between atoms: _585  and  _586
REMARK  240  A    between atoms: _586  and  _587
REMARK  241  A    between atoms: _587  and  _588
REMARK  242  A    between atoms: _593  and  _595
REMARK  243  A    between atoms: _595  and  _596
REMARK  244  A    between atoms: _595  and  _598
REMARK  245  A    between atoms: _598  and  _599
REMARK  246  A    between atoms: _602  and  _604
REMARK  247  A    between atoms: _604  and  _605
REMARK  248  A    between atoms: _607  and  _609
REMARK  249  A    between atoms: _609  and  _610
REMARK  250  A    between atoms: _613  and  _615
REMARK  251  A    between atoms: _615  and  _616
REMARK  252  A    between atoms: _615  and  _618
REMARK  253  A    between atoms: _618  and  _619
REMARK  254  A    between atoms: _619  and  _620
REMARK  255  A    between atoms: _620  and  _621
REMARK  256  A    between atoms: _630  and  _632
REMARK  257  A    between atoms: _632  and  _633
REMARK  258  A    between atoms: _632  and  _635
REMARK  259  A    between atoms: _635  and  _636
REMARK  260  A    between atoms: _641  and  _642
REMARK                            x       y       z     vdW  Elec       q    Type
REMARK                         _______ _______ _______ _____ _____    ______ ____
ROOT
ATOM      1  CA  GLY A   7      23.800  22.313  23.906  0.00  0.00    +0.176 C 
ENDROOT
BRANCH   1   2
ATOM      2  C   GLY A   7      23.329  21.969  22.502  0.00  0.00    +0.243 C 
ATOM      3  O   GLY A   7      22.143  21.711  22.283  0.00  0.00    -0.273 OA
ATOM      4  N   ASN A   8      24.267  21.948  21.553  0.00  0.00    -0.297 N 
ATOM      5  H   ASN A   8      25.243  22.205  21.802  0.00  0.00    +0.150 HD
BRANCH   4   6
ATOM      6  CA  ASN A   8      23.959  21.571  20.165  0.00  0.00    +0.158 C 
BRANCH   6   7
ATOM      7  C   ASN A   8      23.170  20.259  20.039  0.00  0.00    +0.241 C 
ATOM      8  N   MET A   9      23.621  19.245  20.773  0.00  0.00    -0.297 N 
ATOM      9  H   MET A   9      24.476  19.395  21.346  0.00  0.00    +0.150 HD
ATOM     10  O   ASN A   8      22.164  20.189  19.311  0.00  0.00    -0.273 OA
BRANCH   8  11
ATOM     11  CA  MET A   9      22.981  17.931  20.818  0.00  0.00    +0.149 C 
BRANCH  11  12
ATOM     12  C   MET A   9      21.580  17.979  21.441  0.00  0.00    +0.241 C 
ATOM     13  N   UNK A  10      21.418  18.762  22.513  0.00  0.00    -0.298 N 
ATOM     14  H   UNK A  10      22.248  19.242  22.915  0.00  0.00    +0.150 HD
ATOM     15  O   MET A   9      20.665  17.313  20.946  0.00  0.00    -0.273 OA
BRANCH  13  16
ATOM     16  C   UNK A  10      20.101  18.967  23.143  0.00  0.00    +0.137 C 
BRANCH  16  17
ATOM     17  C   UNK A  10      19.073  19.488  22.132  0.00  0.00    +0.227 C 
ATOM     18  O   UNK A  10      17.963  18.966  22.049  0.00  0.00    -0.286 OA
ENDBRANCH  16  17
BRANCH  16  19
ATOM     19  C   UNK A  10      20.194  19.920  24.352  0.00  0.00    +0.028 C 
BRANCH  19  20
ATOM     20  C   UNK A  10      21.169  19.476  25.452  0.00  0.00    -0.000 C 
BRANCH  20  21
ATOM     21  C   UNK A  10      21.395  20.564  26.495  0.00  0.00    -0.023 C 
BRANCH  21  22
ATOM     22  C   UNK A  10      22.635  20.264  27.343  0.00  0.00    -0.081 C 
BRANCH  22  23
ATOM     23  N   UNK A  10      22.936  21.358  28.330  0.00  0.00    +0.387 N 
ATOM     24  H   UNK A  10      22.147  22.035  28.335  0.00  0.00    -0.084 HD
ATOM     25  H   UNK A  10      23.038  20.940  29.277  0.00  0.00    -0.084 HD
BRANCH  23  26
ATOM     26  C   UNK A  10      24.058  22.003  28.018  0.00  0.00    -0.051 C 
BRANCH  26  27
ATOM     27  C   UNK A  10      24.260  23.231  28.879  0.00  0.00    -0.007 C 
ATOM     28  C   UNK A  10      25.399  24.030  28.682  0.00  0.00    +0.023 C 
ATOM     29  C   UNK A  10      25.601  25.165  29.450  0.00  0.00    +0.091 C 
ATOM     30  N   UNK A  10      24.687  25.500  30.422  0.00  0.00    -0.263 NA
ATOM     31  C   UNK A  10      23.564  24.734  30.646  0.00  0.00    +0.164 C 
ATOM     32  C   UNK A  10      22.615  25.168  31.726  0.00  0.00    +0.035 C 
ATOM     33  C   UNK A  10      23.331  23.585  29.880  0.00  0.00    +0.189 C 
ATOM     34  O   UNK A  10      22.313  22.889  30.080  0.00  0.00    -0.290 OA
BRANCH  28  35
ATOM     35  C   UNK A  10      26.403  23.716  27.604  0.00  0.00    +0.181 C 
BRANCH  35  36
ATOM     36  O   UNK A  10      26.041  24.288  26.316  0.00  0.00    -0.265 OA
BRANCH  36  37
ATOM     37  P   UNK A  10      27.102  24.625  25.145  0.00  0.00    +0.533 P 
ATOM     38  O   UNK A  10      27.679  23.311  24.759  0.00  0.00    -0.115 OA
ATOM     39  O   UNK A  10      28.075  25.531  25.785  0.00  0.00    -0.115 OA
ATOM     40  O   UNK A  10      26.250  25.259  24.110  0.00  0.00    -0.222 OA
ENDBRANCH  36  37
ENDBRANCH  35  36
ENDBRANCH  28  35
ENDBRANCH  26  27
ENDBRANCH  23  26
ENDBRANCH  22  23
ENDBRANCH  21  22
ENDBRANCH  20  21
ENDBRANCH  19  20
ENDBRANCH  16  19
ENDBRANCH  13  16
ENDBRANCH  11  12
BRANCH  11  41
ATOM     41  CB  MET A   9      23.864  16.938  21.577  0.00  0.00    +0.041 C 
BRANCH  41  42
ATOM     42  CG  MET A   9      25.261  16.755  20.992  0.00  0.00    +0.060 C 
BRANCH  42  43
ATOM     43  SD  MET A   9      26.366  15.961  22.169  0.00  0.00    -0.139 S 
ATOM     44  CE  MET A   9      27.912  16.023  21.259  0.00  0.00    +0.069 C 
ENDBRANCH  42  43
ENDBRANCH  41  42
ENDBRANCH  11  41
ENDBRANCH   8  11
ENDBRANCH   6   7
BRANCH   6  45
ATOM     45  CB  ASN A   8      25.211  21.593  19.255  0.00  0.00    +0.114 C 
BRANCH  45  46
ATOM     46  CG  ASN A   8      26.407  20.761  19.791  0.00  0.00    +0.222 C 
ATOM     47  ND2 ASN A   8      26.273  20.147  20.957  0.00  0.00    -0.329 N 
ATOM     48 HD21 ASN A   8      25.384  20.232  21.490  0.00  0.00    +0.145 HD
ATOM     49 HD22 ASN A   8      27.057  19.580  21.339  0.00  0.00    +0.145 HD
ATOM     50  OD1 ASN A   8      27.443  20.687  19.126  0.00  0.00    -0.275 OA
ENDBRANCH  45  46
ENDBRANCH   6  45
ENDBRANCH   4   6
ENDBRANCH   1   2
BRANCH   1  52
ATOM     51  C   THR A   6      25.159  20.287  24.038  0.00  0.00    +0.243 C 
ATOM     52  N   GLY A   7      25.041  21.600  24.210  0.00  0.00    -0.295 N 
ATOM     53  H   GLY A   7      25.855  22.136  24.572  0.00  0.00    +0.150 HD
ATOM     54  O   THR A   6      24.193  19.558  23.796  0.00  0.00    -0.273 OA
BRANCH  51  55
ATOM     55  CA  THR A   6      26.570  19.703  24.154  0.00  0.00    +0.176 C 
BRANCH  55  57
ATOM     56  C   GLY A   5      28.604  20.387  22.970  0.00  0.00    +0.243 C 
ATOM     57  N   THR A   6      27.600  20.689  23.791  0.00  0.00    -0.295 N 
ATOM     58  H   THR A   6      27.542  21.649  24.187  0.00  0.00    +0.150 HD
ATOM     59  O   GLY A   5      28.839  19.229  22.581  0.00  0.00    -0.273 OA
BRANCH  56  60
ATOM     60  CA  GLY A   5      29.492  21.538  22.537  0.00  0.00    +0.176 C 
BRANCH  60  62
ATOM     61  C   SER A   4      31.273  20.491  21.246  0.00  0.00    +0.243 C 
ATOM     62  N   GLY A   5      30.854  21.050  22.381  0.00  0.00    -0.295 N 
ATOM     63  H   GLY A   5      31.518  21.140  23.176  0.00  0.00    +0.150 HD
ATOM     64  O   SER A   4      30.663  20.583  20.164  0.00  0.00    -0.273 OA
BRANCH  61  65
ATOM     65  CA  SER A   4      32.580  19.724  21.342  0.00  0.00    +0.178 C 
BRANCH  65  67
ATOM     66  C   ALA A   3      34.883  20.508  21.251  0.00  0.00    +0.241 C 
ATOM     67  N   SER A   4      33.662  20.585  21.776  0.00  0.00    -0.295 N 
ATOM     68  H   SER A   4      33.479  21.286  22.522  0.00  0.00    +0.150 HD
ATOM     69  O   ALA A   3      35.202  19.685  20.378  0.00  0.00    -0.273 OA
BRANCH  66  70
ATOM     70  CA  ALA A   3      35.906  21.525  21.772  0.00  0.00    +0.149 C 
ATOM     71  CB  ALA A   3      36.384  21.153  23.167  0.00  0.00    +0.031 C 
BRANCH  70  73
ATOM     72  C   GLU A   2      34.842  23.405  20.632  0.00  0.00    +0.241 C 
ATOM     73  N   ALA A   3      35.397  22.903  21.735  0.00  0.00    -0.297 N 
ATOM     74  H   ALA A   3      35.471  23.498  22.585  0.00  0.00    +0.150 HD
ATOM     75  O   GLU A   2      34.638  22.732  19.634  0.00  0.00    -0.273 OA
BRANCH  72  76
ATOM     76  CA  GLU A   2      34.468  24.887  20.645  0.00  0.00    +0.149 C 
BRANCH  76  79
ATOM     77  C   THR A   1      36.585  26.051  20.281  0.00  0.00    +0.241 C 
ATOM     78  O   THR A   1      36.922  25.876  21.451  0.00  0.00    -0.274 OA
ATOM     79  N   GLU A   2      35.408  25.643  19.806  0.00  0.00    -0.297 N 
ATOM     80  H   GLU A   2      35.150  25.864  18.823  0.00  0.00    +0.150 HD
BRANCH  77  81
ATOM     81  CA  THR A   1      37.534  26.765  19.313  0.00  0.00    +0.172 C 
BRANCH  81  82
ATOM     82  N   THR A   1      37.549  26.232  17.943  0.00  0.00    -0.236 NA
ATOM     83  H   THR A   1      36.724  26.376  17.327  0.00  0.00    +0.142 HD
ENDBRANCH  81  82
BRANCH  81  84
ATOM     84  CB  THR A   1      37.286  28.301  19.337  0.00  0.00    +0.135 C 
ATOM     85  CG2 THR A   1      38.346  29.021  18.514  0.00  0.00    +0.034 C 
BRANCH  84  86
ATOM     86  OG1 THR A   1      35.986  28.602  18.809  0.00  0.00    -0.383 OA
ATOM     87  HG1 THR A   1      35.927  28.278  17.875  0.00  0.00    +0.210 HD
ENDBRANCH  84  86
ENDBRANCH  81  84
ENDBRANCH  77  81
ENDBRANCH  76  79
BRANCH  76  88
ATOM     88  CB  GLU A   2      33.024  25.082  20.162  0.00  0.00    +0.041 C 
BRANCH  88  89
ATOM     89  CG  GLU A   2      31.953  24.502  21.091  0.00  0.00    +0.116 C 
BRANCH  89  90
ATOM     90  CD  GLU A   2      31.749  25.343  22.329  0.00  0.00    +0.365 C 
ATOM     91  OE2 GLU A   2      32.397  25.057  23.357  0.00  0.00    -0.246 OA
ATOM     92  OE1 GLU A   2      30.958  26.306  22.271  0.00  0.00    -0.246 OA
ENDBRANCH  89  90
ENDBRANCH  88  89
ENDBRANCH  76  88
ENDBRANCH  72  76
ENDBRANCH  70  73
ENDBRANCH  66  70
ENDBRANCH  65  67
BRANCH  65  93
ATOM     93  CB  SER A   4      32.419  18.542  22.305  0.00  0.00    +0.166 C 
BRANCH  93  94
ATOM     94  OG  SER A   4      31.240  17.807  22.019  0.00  0.00    -0.380 OA
ATOM     95  H   SER A   4      30.453  18.400  22.110  0.00  0.00    +0.211 HD
ENDBRANCH  93  94
ENDBRANCH  65  93
ENDBRANCH  61  65
ENDBRANCH  60  62
ENDBRANCH  56  60
ENDBRANCH  55  57
BRANCH  55  96
ATOM     96  CB  THR A   6      26.770  19.114  25.559  0.00  0.00    +0.137 C 
ATOM     97  CG2 THR A   6      28.047  18.292  25.635  0.00  0.00    +0.034 C 
BRANCH  96  98
ATOM     98  OG1 THR A   6      26.819  20.173  26.519  0.00  0.00    -0.382 OA
ATOM     99  HG1 THR A   6      26.948  19.791  27.423  0.00  0.00    +0.210 HD
ENDBRANCH  96  98
ENDBRANCH  55  96
ENDBRANCH  51  55
ENDBRANCH   1  52
TORSDOF 44
REMARK  Name = ../refined-set-2016/3g2l/3g2l_pocket.pdb
REMARK  260 active torsions:
REMARK  status: ('A' for Active; 'I' for Inactive)
REMARK    1  A    between atoms: _1  and  _3
REMARK    2  A    between atoms: _3  and  _4
REMARK    3  A    between atoms: _3  and  _6
REMARK    4  A    between atoms: _6  and  _7
REMARK    5  A    between atoms: _12  and  _13
REMARK    6  A    between atoms: _15  and  _17
REMARK    7  A    between atoms: _17  and  _18
REMARK    8  A    between atoms: _17  and  _20
REMARK    9  A    between atoms: _20  and  _21
REMARK   10  A    between atoms: _21  and  _22
REMARK   11  A    between atoms: _25  and  _27
REMARK   12  A    between atoms: _27  and  _28
REMARK   13  A    between atoms: _27  and  _30
REMARK   14  A    between atoms: _30  and  _31
REMARK   15  A    between atoms: _36  and  _38
REMARK   16  A    between atoms: _38  and  _39
REMARK   17  A    between atoms: _41  and  _43
REMARK   18  A    between atoms: _43  and  _44
REMARK   19  A    between atoms: _46  and  _48
REMARK   20  A    between atoms: _48  and  _49
REMARK   21  A    between atoms: _48  and  _51
REMARK   22  A    between atoms: _51  and  _52
REMARK   23  A    between atoms: _55  and  _57
REMARK   24  A    between atoms: _57  and  _58
REMARK   25  A    between atoms: _60  and  _62
REMARK   26  A    between atoms: _62  and  _63
REMARK   27  A    between atoms: _62  and  _65
REMARK   28  A    between atoms: _65  and  _66
REMARK   29  A    between atoms: _66  and  _67
REMARK   30  A    between atoms: _67  and  _68
REMARK   31  A    between atoms: _77  and  _79
REMARK   32  A    between atoms: _79  and  _80
REMARK   33  A    between atoms: _79  and  _82
REMARK   34  A    between atoms: _82  and  _83
REMARK   35  A    between atoms: _86  and  _88
REMARK   36  A    between atoms: _88  and  _89
REMARK   37  A    between atoms: _92  and  _94
REMARK   38  A    between atoms: _94  and  _95
REMARK   39  A    between atoms: _94  and  _97
REMARK   40  A    between atoms: _97  and  _98
REMARK   41  A    between atoms: _104  and  _106
REMARK   42  A    between atoms: _106  and  _107
REMARK   43  A    between atoms: _106  and  _109
REMARK   44  A    between atoms: _109  and  _110
REMARK   45  A    between atoms: _115  and  _117
REMARK   46  A    between atoms: _117  and  _118
REMARK   47  A    between atoms: _117  and  _120
REMARK   48  A    between atoms: _120  and  _121
REMARK   49  A    between atoms: _124  and  _126
REMARK   50  A    between atoms: _126  and  _127
REMARK   51  A    between atoms: _126  and  _129
REMARK   52  A    between atoms: _129  and  _130
REMARK   53  A    between atoms: _135  and  _137
REMARK   54  A    between atoms: _137  and  _138
REMARK   55  A    between atoms: _137  and  _140
REMARK   56  A    between atoms: _140  and  _141
REMARK   57  A    between atoms: _147  and  _149
REMARK   58  A    between atoms: _149  and  _150
REMARK   59  A    between atoms: _149  and  _152
REMARK   60  A    between atoms: _152  and  _153
REMARK   61  A    between atoms: _159  and  _161
REMARK   62  A    between atoms: _161  and  _162
REMARK   63  A    between atoms: _161  and  _164
REMARK   64  A    between atoms: _164  and  _165
REMARK   65  A    between atoms: _165  and  _166
REMARK   66  A    between atoms: _169  and  _171
REMARK   67  A    between atoms: _171  and  _172
REMARK   68  A    between atoms: _171  and  _174
REMARK   69  A    between atoms: _174  and  _175
REMARK   70  A    between atoms: _175  and  _176
REMARK   71  A    between atoms: _176  and  _177
REMARK   72  A    between atoms: _186  and  _188
REMARK   73  A    between atoms: _188  and  _189
REMARK   74  A    between atoms: _188  and  _191
REMARK   75  A    between atoms: _191  and  _192
REMARK   76  A    between atoms: _197  and  _199
REMARK   77  A    between atoms: _199  and  _200
REMARK   78  A    between atoms: _199  and  _202
REMARK   79  A    between atoms: _202  and  _203
REMARK   80  A    between atoms: _206  and  _208
REMARK   81  A    between atoms: _208  and  _209
REMARK   82  A    between atoms: _208  and  _211
REMARK   83  A    between atoms: _211  and  _212
REMARK   84  A    between atoms: _215  and  _217
REMARK   85  A    between atoms: _217  and  _218
REMARK   86  A    between atoms: _217  and  _220
REMARK   87  A    between atoms: _220  and  _221
REMARK   88  A    between atoms: _226  and  _228
REMARK   89  A    between atoms: _228  and  _229
REMARK   90  A    between atoms: _228  and  _231
REMARK   91  A    between atoms: _231  and  _232
REMARK   92  A    between atoms: _235  and  _237
REMARK   93  A    between atoms: _237  and  _238
REMARK   94  A    between atoms: _237  and  _240
REMARK   95  A    between atoms: _240  and  _241
REMARK   96  A    between atoms: _246  and  _248
REMARK   97  A    between atoms: _248  and  _249
REMARK   98  A    between atoms: _248  and  _251
REMARK   99  A    between atoms: _251  and  _252
REMARK  100  A    between atoms: _257  and  _259
REMARK  101  A    between atoms: _259  and  _260
REMARK  102  A    between atoms: _259  and  _262
REMARK  103  A    between atoms: _262  and  _263
REMARK  104  A    between atoms: _266  and  _268
REMARK  105  A    between atoms: _268  and  _269
REMARK  106  A    between atoms: _268  and  _271
REMARK  107  A    between atoms: _274  and  _276
REMARK  108  A    between atoms: _276  and  _277
REMARK  109  A    between atoms: _276  and  _279
REMARK  110  A    between atoms: _279  and  _280
REMARK  111  A    between atoms: _284  and  _285
REMARK  112  A    between atoms: _290  and  _292
REMARK  113  A    between atoms: _292  and  _293
REMARK  114  A    between atoms: _292  and  _295
REMARK  115  A    between atoms: _295  and  _296
REMARK  116  A    between atoms: _296  and  _297
REMARK  117  A    between atoms: _300  and  _302
REMARK  118  A    between atoms: _302  and  _303
REMARK  119  A    between atoms: _306  and  _308
REMARK  120  A    between atoms: _308  and  _309
REMARK  121  A    between atoms: _308  and  _311
REMARK  122  A    between atoms: _311  and  _312
REMARK  123  A    between atoms: _315  and  _317
REMARK  124  A    between atoms: _317  and  _318
REMARK  125  A    between atoms: _317  and  _320
REMARK  126  A    between atoms: _320  and  _321
REMARK  127  A    between atoms: _321  and  _322
REMARK  128  A    between atoms: _325  and  _327
REMARK  129  A    between atoms: _327  and  _328
REMARK  130  A    between atoms: _327  and  _330
REMARK  131  A    between atoms: _330  and  _331
REMARK  132  A    between atoms: _336  and  _338
REMARK  133  A    between atoms: _338  and  _339
REMARK  134  A    between atoms: _341  and  _343
REMARK  135  A    between atoms: _343  and  _344
REMARK  136  A    between atoms: _343  and  _346
REMARK  137  A    between atoms: _349  and  _351
REMARK  138  A    between atoms: _351  and  _352
REMARK  139  A    between atoms: _355  and  _357
REMARK  140  A    between atoms: _357  and  _358
REMARK  141  A    between atoms: _357  and  _360
REMARK  142  A    between atoms: _360  and  _361
REMARK  143  A    between atoms: _366  and  _368
REMARK  144  A    between atoms: _368  and  _369
REMARK  145  A    between atoms: _368  and  _371
REMARK  146  A    between atoms: _371  and  _372
REMARK  147  A    between atoms: _372  and  _373
REMARK  148  A    between atoms: _373  and  _374
REMARK  149  A    between atoms: _374  and  _375
REMARK  150  A    between atoms: _379  and  _381
REMARK  151  A    between atoms: _381  and  _382
REMARK  152  A    between atoms: _381  and  _384
REMARK  153  A    between atoms: _384  and  _385
REMARK  154  A    between atoms: _388  and  _390
REMARK  155  A    between atoms: _390  and  _391
REMARK  156  A    between atoms: _390  and  _393
REMARK  157  A    between atoms: _393  and  _394
REMARK  158  A    between atoms: _399  and  _401
REMARK  159  A    between atoms: _401  and  _402
REMARK  160  A    between atoms: _404  and  _406
REMARK  161  A    between atoms: _406  and  _407
REMARK  162  A    between atoms: _406  and  _409
REMARK  163  A    between atoms: _409  and  _410
REMARK  164  A    between atoms: _410  and  _411
REMARK  165  A    between atoms: _411  and  _412
REMARK  166  A    between atoms: _412  and  _413
REMARK  167  A    between atoms: _417  and  _419
REMARK  168  A    between atoms: _419  and  _420
REMARK  169  A    between atoms: _419  and  _422
REMARK  170  A    between atoms: _422  and  _423
REMARK  171  A    between atoms: _423  and  _424
REMARK  172  A    between atoms: _424  and  _425
REMARK  173  A    between atoms: _434  and  _436
REMARK  174  A    between atoms: _436  and  _437
REMARK  175  A    between atoms: _436  and  _439
REMARK  176  A    between atoms: _439  and  _440
REMARK  177  A    between atoms: _445  and  _447
REMARK  178  A    between atoms: _447  and  _448
REMARK  179  A    between atoms: _447  and  _450
REMARK  180  A    between atoms: _450  and  _451
REMARK  181  A    between atoms: _456  and  _457
REMARK  182  A    between atoms: _459  and  _461
REMARK  183  A    between atoms: _461  and  _462
REMARK  184  A    between atoms: _461  and  _464
REMARK  185  A    between atoms: _464  and  _465
REMARK  186  A    between atoms: _465  and  _466
REMARK  187  A    between atoms: _466  and  _467
REMARK  188  A    between atoms: _467  and  _468
REMARK  189  A    between atoms: _472  and  _474
REMARK  190  A    between atoms: _474  and  _475
REMARK  191  A    between atoms: _474  and  _477
REMARK  192  A    between atoms: _477  and  _478
REMARK  193  A    between atoms: _483  and  _484
REMARK  194  A    between atoms: _486  and  _488
REMARK  195  A    between atoms: _488  and  _489
REMARK  196  A    between atoms: _488  and  _491
REMARK  197  A    between atoms: _491  and  _492
REMARK  198  A    between atoms: _494  and  _496
REMARK  199  A    between atoms: _496  and  _497
REMARK  200  A    between atoms: _496  and  _499
REMARK  201  A    between atoms: _499  and  _500
REMARK  202  A    between atoms: _503  and  _505
REMARK  203  A    between atoms: _505  and  _506
REMARK  204  A    between atoms: _505  and  _508
REMARK  205  A    between atoms: _508  and  _509
REMARK  206  A    between atoms: _509  and  _510
REMARK  207  A    between atoms: _513  and  _515
REMARK  208  A    between atoms: _515  and  _516
REMARK  209  A    between atoms: _519  and  _521
REMARK  210  A    between atoms: _521  and  _522
REMARK  211  A    between atoms: _521  and  _524
REMARK  212  A    between atoms: _524  and  _525
REMARK  213  A    between atoms: _527  and  _529
REMARK  214  A    between atoms: _529  and  _530
REMARK  215  A    between atoms: _532  and  _534
REMARK  216  A    between atoms: _534  and  _535
REMARK  217  A    between atoms: _534  and  _537
REMARK  218  A    between atoms: _537  and  _538
REMARK  219  A    between atoms: _541  and  _543
REMARK  220  A    between atoms: _543  and  _544
REMARK  221  A    between atoms: _546  and  _548
REMARK  222  A    between atoms: _548  and  _549
REMARK  223  A    between atoms: _548  and  _551
REMARK  224  A    between atoms: _551  and  _552
REMARK  225  A    between atoms: _557  and  _559
REMARK  226  A    between atoms: _559  and  _560
REMARK  227  A    between atoms: _559  and  _562
REMARK  228  A    between atoms: _562  and  _563
REMARK  229  A    between atoms: _563  and  _564
REMARK  230  A    between atoms: _571  and  _572
REMARK  231  A    between atoms: _572  and  _588
REMARK  232  A    between atoms: _573  and  _575
REMARK  233  A    between atoms: _575  and  _576
REMARK  234  A    between atoms: _576  and  _577
REMARK  235  A    between atoms: _581  and  _583
REMARK  236  A    between atoms: _583  and  _584
REMARK  237  A    between atoms: _583  and  _591
REMARK  238  A    between atoms: _584  and  _585
REMARK  239  A    between atoms: _585  and  _586
REMARK  240  A    between atoms: _586  and  _587
REMARK  241  A    between atoms: _587  and  _588
REMARK  242  A    between atoms: _593  and  _595
REMARK  243  A    between atoms: _595  and  _596
REMARK  244  A    between atoms: _595  and  _598
REMARK  245  A    between atoms: _598  and  _599
REMARK  246  A    between atoms: _602  and  _604
REMARK  247  A    between atoms: _604  and  _605
REMARK  248  A    between atoms: _607  and  _609
REMARK  249  A    between atoms: _609  and  _610
REMARK  250  A    between atoms: _613  and  _615
REMARK  251  A    between atoms: _615  and  _616
REMARK  252  A    between atoms: _615  and  _618
REMARK  253  A    between atoms: _618  and  _619
REMARK  254  A    between atoms: _619  and  _620
REMARK  255  A    between atoms: _620  and  _621
REMARK  256  A    between atoms: _630  and  _632
REMARK  257  A    between atoms: _632  and  _633
REMARK  258  A    between atoms: _632  and  _635
REMARK  259  A    between atoms: _635  and  _636
REMARK  260  A    between atoms: _641  and  _642
REMARK                            x       y       z     vdW  Elec       q    Type
REMARK                         _______ _______ _______ _____ _____    ______ ____
ROOT
ATOM      1  C   ASP A   1      32.871  22.053  15.786  0.00  0.00    +0.239 C 
ATOM      2  N   GLY A   2      33.777  21.543  16.621  0.00  0.00    -0.296 N 
ATOM      3  H   GLY A   2      34.771  21.838  16.542  0.00  0.00    +0.150 HD
ATOM      4  O   ASP A   1      31.688  21.707  15.791  0.00  0.00    -0.274 OA
ENDROOT
BRANCH   1   5
ATOM      5  CA  ASP A   1      33.364  23.098  14.792  0.00  0.00    +0.156 C 
BRANCH   5   6
ATOM      6  N   ASP A   1      32.584  23.042  13.564  0.00  0.00    -0.238 NA
ATOM      7  H   ASP A   1      31.547  22.996  13.628  0.00  0.00    +0.142 HD
ENDBRANCH   5   6
BRANCH   5   8
ATOM      8  CB  ASP A   1      33.266  24.489  15.416  0.00  0.00    +0.140 C 
BRANCH   8   9
ATOM      9  CG  ASP A   1      34.386  24.762  16.402  0.00  0.00    +0.367 C 
ATOM     10  OD2 ASP A   1      34.234  25.681  17.227  0.00  0.00    -0.246 OA
ATOM     11  OD1 ASP A   1      35.419  24.051  16.354  0.00  0.00    -0.246 OA
ENDBRANCH   8   9
ENDBRANCH   5   8
ENDBRANCH   1   5
BRANCH   2  12
ATOM     12  CA  GLY A   2      33.392  20.573  17.648  0.00  0.00    +0.176 C 
BRANCH  12  13
ATOM     13  C   GLY A   2      32.513  19.461  17.101  0.00  0.00    +0.243 C 
ATOM     14  N   ALA A   3      31.445  19.140  17.831  0.00  0.00    -0.298 N 
ATOM     15  H   ALA A   3      31.225  19.697  18.681  0.00  0.00    +0.150 HD
ATOM     16  O   GLY A   2      32.792  18.910  16.028  0.00  0.00    -0.273 OA
BRANCH  14  17
ATOM     17  CA  ALA A   3      30.574  18.022  17.464  0.00  0.00    +0.137 C 
ATOM     18  CB  ALA A   3      29.819  17.495  18.684  0.00  0.00    +0.030 C 
BRANCH  17  19
ATOM     19  C   ALA A   3      29.603  18.344  16.321  0.00  0.00    +0.227 C 
ATOM     20  O   ALA A   3      28.955  17.427  15.799  0.00  0.00    -0.286 OA
ENDBRANCH  17  19
ENDBRANCH  14  17
ENDBRANCH  12  13
ENDBRANCH   2  12
TORSDOF 8
REMARK  Name = ../refined-set-2016/3g2l/3g2l_pocket.pdb
REMARK  260 active torsions:
REMARK  status: ('A' for Active; 'I' for Inactive)
REMARK    1  A    between atoms: _1  and  _3
REMARK    2  A    between atoms: _3  and  _4
REMARK    3  A    between atoms: _3  and  _6
REMARK    4  A    between atoms: _6  and  _7
REMARK    5  A    between atoms: _12  and  _13
REMARK    6  A    between atoms: _15  and  _17
REMARK    7  A    between atoms: _17  and  _18
REMARK    8  A    between atoms: _17  and  _20
REMARK    9  A    between atoms: _20  and  _21
REMARK   10  A    between atoms: _21  and  _22
REMARK   11  A    between atoms: _25  and  _27
REMARK   12  A    between atoms: _27  and  _28
REMARK   13  A    between atoms: _27  and  _30
REMARK   14  A    between atoms: _30  and  _31
REMARK   15  A    between atoms: _36  and  _38
REMARK   16  A    between atoms: _38  and  _39
REMARK   17  A    between atoms: _41  and  _43
REMARK   18  A    between atoms: _43  and  _44
REMARK   19  A    between atoms: _46  and  _48
REMARK   20  A    between atoms: _48  and  _49
REMARK   21  A    between atoms: _48  and  _51
REMARK   22  A    between atoms: _51  and  _52
REMARK   23  A    between atoms: _55  and  _57
REMARK   24  A    between atoms: _57  and  _58
REMARK   25  A    between atoms: _60  and  _62
REMARK   26  A    between atoms: _62  and  _63
REMARK   27  A    between atoms: _62  and  _65
REMARK   28  A    between atoms: _65  and  _66
REMARK   29  A    between atoms: _66  and  _67
REMARK   30  A    between atoms: _67  and  _68
REMARK   31  A    between atoms: _77  and  _79
REMARK   32  A    between atoms: _79  and  _80
REMARK   33  A    between atoms: _79  and  _82
REMARK   34  A    between atoms: _82  and  _83
REMARK   35  A    between atoms: _86  and  _88
REMARK   36  A    between atoms: _88  and  _89
REMARK   37  A    between atoms: _92  and  _94
REMARK   38  A    between atoms: _94  and  _95
REMARK   39  A    between atoms: _94  and  _97
REMARK   40  A    between atoms: _97  and  _98
REMARK   41  A    between atoms: _104  and  _106
REMARK   42  A    between atoms: _106  and  _107
REMARK   43  A    between atoms: _106  and  _109
REMARK   44  A    between atoms: _109  and  _110
REMARK   45  A    between atoms: _115  and  _117
REMARK   46  A    between atoms: _117  and  _118
REMARK   47  A    between atoms: _117  and  _120
REMARK   48  A    between atoms: _120  and  _121
REMARK   49  A    between atoms: _124  and  _126
REMARK   50  A    between atoms: _126  and  _127
REMARK   51  A    between atoms: _126  and  _129
REMARK   52  A    between atoms: _129  and  _130
REMARK   53  A    between atoms: _135  and  _137
REMARK   54  A    between atoms: _137  and  _138
REMARK   55  A    between atoms: _137  and  _140
REMARK   56  A    between atoms: _140  and  _141
REMARK   57  A    between atoms: _147  and  _149
REMARK   58  A    between atoms: _149  and  _150
REMARK   59  A    between atoms: _149  and  _152
REMARK   60  A    between atoms: _152  and  _153
REMARK   61  A    between atoms: _159  and  _161
REMARK   62  A    between atoms: _161  and  _162
REMARK   63  A    between atoms: _161  and  _164
REMARK   64  A    between atoms: _164  and  _165
REMARK   65  A    between atoms: _165  and  _166
REMARK   66  A    between atoms: _169  and  _171
REMARK   67  A    between atoms: _171  and  _172
REMARK   68  A    between atoms: _171  and  _174
REMARK   69  A    between atoms: _174  and  _175
REMARK   70  A    between atoms: _175  and  _176
REMARK   71  A    between atoms: _176  and  _177
REMARK   72  A    between atoms: _186  and  _188
REMARK   73  A    between atoms: _188  and  _189
REMARK   74  A    between atoms: _188  and  _191
REMARK   75  A    between atoms: _191  and  _192
REMARK   76  A    between atoms: _197  and  _199
REMARK   77  A    between atoms: _199  and  _200
REMARK   78  A    between atoms: _199  and  _202
REMARK   79  A    between atoms: _202  and  _203
REMARK   80  A    between atoms: _206  and  _208
REMARK   81  A    between atoms: _208  and  _209
REMARK   82  A    between atoms: _208  and  _211
REMARK   83  A    between atoms: _211  and  _212
REMARK   84  A    between atoms: _215  and  _217
REMARK   85  A    between atoms: _217  and  _218
REMARK   86  A    between atoms: _217  and  _220
REMARK   87  A    between atoms: _220  and  _221
REMARK   88  A    between atoms: _226  and  _228
REMARK   89  A    between atoms: _228  and  _229
REMARK   90  A    between atoms: _228  and  _231
REMARK   91  A    between atoms: _231  and  _232
REMARK   92  A    between atoms: _235  and  _237
REMARK   93  A    between atoms: _237  and  _238
REMARK   94  A    between atoms: _237  and  _240
REMARK   95  A    between atoms: _240  and  _241
REMARK   96  A    between atoms: _246  and  _248
REMARK   97  A    between atoms: _248  and  _249
REMARK   98  A    between atoms: _248  and  _251
REMARK   99  A    between atoms: _251  and  _252
REMARK  100  A    between atoms: _257  and  _259
REMARK  101  A    between atoms: _259  and  _260
REMARK  102  A    between atoms: _259  and  _262
REMARK  103  A    between atoms: _262  and  _263
REMARK  104  A    between atoms: _266  and  _268
REMARK  105  A    between atoms: _268  and  _269
REMARK  106  A    between atoms: _268  and  _271
REMARK  107  A    between atoms: _274  and  _276
REMARK  108  A    between atoms: _276  and  _277
REMARK  109  A    between atoms: _276  and  _279
REMARK  110  A    between atoms: _279  and  _280
REMARK  111  A    between atoms: _284  and  _285
REMARK  112  A    between atoms: _290  and  _292
REMARK  113  A    between atoms: _292  and  _293
REMARK  114  A    between atoms: _292  and  _295
REMARK  115  A    between atoms: _295  and  _296
REMARK  116  A    between atoms: _296  and  _297
REMARK  117  A    between atoms: _300  and  _302
REMARK  118  A    between atoms: _302  and  _303
REMARK  119  A    between atoms: _306  and  _308
REMARK  120  A    between atoms: _308  and  _309
REMARK  121  A    between atoms: _308  and  _311
REMARK  122  A    between atoms: _311  and  _312
REMARK  123  A    between atoms: _315  and  _317
REMARK  124  A    between atoms: _317  and  _318
REMARK  125  A    between atoms: _317  and  _320
REMARK  126  A    between atoms: _320  and  _321
REMARK  127  A    between atoms: _321  and  _322
REMARK  128  A    between atoms: _325  and  _327
REMARK  129  A    between atoms: _327  and  _328
REMARK  130  A    between atoms: _327  and  _330
REMARK  131  A    between atoms: _330  and  _331
REMARK  132  A    between atoms: _336  and  _338
REMARK  133  A    between atoms: _338  and  _339
REMARK  134  A    between atoms: _341  and  _343
REMARK  135  A    between atoms: _343  and  _344
REMARK  136  A    between atoms: _343  and  _346
REMARK  137  A    between atoms: _349  and  _351
REMARK  138  A    between atoms: _351  and  _352
REMARK  139  A    between atoms: _355  and  _357
REMARK  140  A    between atoms: _357  and  _358
REMARK  141  A    between atoms: _357  and  _360
REMARK  142  A    between atoms: _360  and  _361
REMARK  143  A    between atoms: _366  and  _368
REMARK  144  A    between atoms: _368  and  _369
REMARK  145  A    between atoms: _368  and  _371
REMARK  146  A    between atoms: _371  and  _372
REMARK  147  A    between atoms: _372  and  _373
REMARK  148  A    between atoms: _373  and  _374
REMARK  149  A    between atoms: _374  and  _375
REMARK  150  A    between atoms: _379  and  _381
REMARK  151  A    between atoms: _381  and  _382
REMARK  152  A    between atoms: _381  and  _384
REMARK  153  A    between atoms: _384  and  _385
REMARK  154  A    between atoms: _388  and  _390
REMARK  155  A    between atoms: _390  and  _391
REMARK  156  A    between atoms: _390  and  _393
REMARK  157  A    between atoms: _393  and  _394
REMARK  158  A    between atoms: _399  and  _401
REMARK  159  A    between atoms: _401  and  _402
REMARK  160  A    between atoms: _404  and  _406
REMARK  161  A    between atoms: _406  and  _407
REMARK  162  A    between atoms: _406  and  _409
REMARK  163  A    between atoms: _409  and  _410
REMARK  164  A    between atoms: _410  and  _411
REMARK  165  A    between atoms: _411  and  _412
REMARK  166  A    between atoms: _412  and  _413
REMARK  167  A    between atoms: _417  and  _419
REMARK  168  A    between atoms: _419  and  _420
REMARK  169  A    between atoms: _419  and  _422
REMARK  170  A    between atoms: _422  and  _423
REMARK  171  A    between atoms: _423  and  _424
REMARK  172  A    between atoms: _424  and  _425
REMARK  173  A    between atoms: _434  and  _436
REMARK  174  A    between atoms: _436  and  _437
REMARK  175  A    between atoms: _436  and  _439
REMARK  176  A    between atoms: _439  and  _440
REMARK  177  A    between atoms: _445  and  _447
REMARK  178  A    between atoms: _447  and  _448
REMARK  179  A    between atoms: _447  and  _450
REMARK  180  A    between atoms: _450  and  _451
REMARK  181  A    between atoms: _456  and  _457
REMARK  182  A    between atoms: _459  and  _461
REMARK  183  A    between atoms: _461  and  _462
REMARK  184  A    between atoms: _461  and  _464
REMARK  185  A    between atoms: _464  and  _465
REMARK  186  A    between atoms: _465  and  _466
REMARK  187  A    between atoms: _466  and  _467
REMARK  188  A    between atoms: _467  and  _468
REMARK  189  A    between atoms: _472  and  _474
REMARK  190  A    between atoms: _474  and  _475
REMARK  191  A    between atoms: _474  and  _477
REMARK  192  A    between atoms: _477  and  _478
REMARK  193  A    between atoms: _483  and  _484
REMARK  194  A    between atoms: _486  and  _488
REMARK  195  A    between atoms: _488  and  _489
REMARK  196  A    between atoms: _488  and  _491
REMARK  197  A    between atoms: _491  and  _492
REMARK  198  A    between atoms: _494  and  _496
REMARK  199  A    between atoms: _496  and  _497
REMARK  200  A    between atoms: _496  and  _499
REMARK  201  A    between atoms: _499  and  _500
REMARK  202  A    between atoms: _503  and  _505
REMARK  203  A    between atoms: _505  and  _506
REMARK  204  A    between atoms: _505  and  _508
REMARK  205  A    between atoms: _508  and  _509
REMARK  206  A    between atoms: _509  and  _510
REMARK  207  A    between atoms: _513  and  _515
REMARK  208  A    between atoms: _515  and  _516
REMARK  209  A    between atoms: _519  and  _521
REMARK  210  A    between atoms: _521  and  _522
REMARK  211  A    between atoms: _521  and  _524
REMARK  212  A    between atoms: _524  and  _525
REMARK  213  A    between atoms: _527  and  _529
REMARK  214  A    between atoms: _529  and  _530
REMARK  215  A    between atoms: _532  and  _534
REMARK  216  A    between atoms: _534  and  _535
REMARK  217  A    between atoms: _534  and  _537
REMARK  218  A    between atoms: _537  and  _538
REMARK  219  A    between atoms: _541  and  _543
REMARK  220  A    between atoms: _543  and  _544
REMARK  221  A    between atoms: _546  and  _548
REMARK  222  A    between atoms: _548  and  _549
REMARK  223  A    between atoms: _548  and  _551
REMARK  224  A    between atoms: _551  and  _552
REMARK  225  A    between atoms: _557  and  _559
REMARK  226  A    between atoms: _559  and  _560
REMARK  227  A    between atoms: _559  and  _562
REMARK  228  A    between atoms: _562  and  _563
REMARK  229  A    between atoms: _563  and  _564
REMARK  230  A    between atoms: _571  and  _572
REMARK  231  A    between atoms: _572  and  _588
REMARK  232  A    between atoms: _573  and  _575
REMARK  233  A    between atoms: _575  and  _576
REMARK  234  A    between atoms: _576  and  _577
REMARK  235  A    between atoms: _581  and  _583
REMARK  236  A    between atoms: _583  and  _584
REMARK  237  A    between atoms: _583  and  _591
REMARK  238  A    between atoms: _584  and  _585
REMARK  239  A    between atoms: _585  and  _586
REMARK  240  A    between atoms: _586  and  _587
REMARK  241  A    between atoms: _587  and  _588
REMARK  242  A    between atoms: _593  and  _595
REMARK  243  A    between atoms: _595  and  _596
REMARK  244  A    between atoms: _595  and  _598
REMARK  245  A    between atoms: _598  and  _599
REMARK  246  A    between atoms: _602  and  _604
REMARK  247  A    between atoms: _604  and  _605
REMARK  248  A    between atoms: _607  and  _609
REMARK  249  A    between atoms: _609  and  _610
REMARK  250  A    between atoms: _613  and  _615
REMARK  251  A    between atoms: _615  and  _616
REMARK  252  A    between atoms: _615  and  _618
REMARK  253  A    between atoms: _618  and  _619
REMARK  254  A    between atoms: _619  and  _620
REMARK  255  A    between atoms: _620  and  _621
REMARK  256  A    between atoms: _630  and  _632
REMARK  257  A    between atoms: _632  and  _633
REMARK  258  A    between atoms: _632  and  _635
REMARK  259  A    between atoms: _635  and  _636
REMARK  260  A    between atoms: _641  and  _642
REMARK                            x       y       z     vdW  Elec       q    Type
REMARK                         _______ _______ _______ _____ _____    ______ ____
ROOT
ATOM      1  NE  ARG A   1      42.822  35.074  21.812  0.00  0.00    -0.265 N 
ATOM      2  CZ  ARG A   1      42.462  34.250  22.795  0.00  0.00    +0.342 C 
ATOM      3  NH2 ARG A   1      41.664  34.675  23.771  0.00  0.00    -0.292 N 
ATOM      4 HH21 ARG A   1      41.387  34.027  24.535  0.00  0.00    +0.255 HD
ATOM      5 HH22 ARG A   1      41.317  35.656  23.770  0.00  0.00    +0.255 HD
ATOM      6  NH1 ARG A   1      42.892  32.993  22.793  0.00  0.00    -0.292 N 
ATOM      7 HH11 ARG A   1      42.613  32.347  23.559  0.00  0.00    +0.255 HD
ATOM      8 HH12 ARG A   1      43.508  32.655  22.026  0.00  0.00    +0.255 HD
ATOM      9  HE  ARG A   1      43.439  34.696  21.065  0.00  0.00    +0.259 HD
ENDROOT
BRANCH   1  10
ATOM     10  CD  ARG A   1      42.410  36.475  21.710  0.00  0.00    +0.174 C 
BRANCH  10  11
ATOM     11  CG  ARG A   1      42.349  36.938  20.260  0.00  0.00    +0.045 C 
BRANCH  11  12
ATOM     12  CB  ARG A   1      41.229  36.236  19.505  0.00  0.00    +0.029 C 
BRANCH  12  13
ATOM     13  CA  ARG A   1      40.965  36.780  18.097  0.00  0.00    +0.133 C 
BRANCH  13  14
ATOM     14  N   ARG A   1      40.366  38.109  18.168  0.00  0.00    -0.239 NA
ATOM     15  H   ARG A   1      40.078  38.483  19.095  0.00  0.00    +0.142 HD
ENDBRANCH  13  14
BRANCH  13  16
ATOM     16  C   ARG A   1      40.099  35.785  17.326  0.00  0.00    +0.224 C 
ATOM     17  O   ARG A   1      40.606  34.795  16.795  0.00  0.00    -0.287 OA
ENDBRANCH  13  16
ENDBRANCH  12  13
ENDBRANCH  11  12
ENDBRANCH  10  11
ENDBRANCH   1  10
TORSDOF 6
REMARK  Name = ../refined-set-2016/3g2l/3g2l_pocket.pdb
REMARK  260 active torsions:
REMARK  status: ('A' for Active; 'I' for Inactive)
REMARK    1  A    between atoms: _1  and  _3
REMARK    2  A    between atoms: _3  and  _4
REMARK    3  A    between atoms: _3  and  _6
REMARK    4  A    between atoms: _6  and  _7
REMARK    5  A    between atoms: _12  and  _13
REMARK    6  A    between atoms: _15  and  _17
REMARK    7  A    between atoms: _17  and  _18
REMARK    8  A    between atoms: _17  and  _20
REMARK    9  A    between atoms: _20  and  _21
REMARK   10  A    between atoms: _21  and  _22
REMARK   11  A    between atoms: _25  and  _27
REMARK   12  A    between atoms: _27  and  _28
REMARK   13  A    between atoms: _27  and  _30
REMARK   14  A    between atoms: _30  and  _31
REMARK   15  A    between atoms: _36  and  _38
REMARK   16  A    between atoms: _38  and  _39
REMARK   17  A    between atoms: _41  and  _43
REMARK   18  A    between atoms: _43  and  _44
REMARK   19  A    between atoms: _46  and  _48
REMARK   20  A    between atoms: _48  and  _49
REMARK   21  A    between atoms: _48  and  _51
REMARK   22  A    between atoms: _51  and  _52
REMARK   23  A    between atoms: _55  and  _57
REMARK   24  A    between atoms: _57  and  _58
REMARK   25  A    between atoms: _60  and  _62
REMARK   26  A    between atoms: _62  and  _63
REMARK   27  A    between atoms: _62  and  _65
REMARK   28  A    between atoms: _65  and  _66
REMARK   29  A    between atoms: _66  and  _67
REMARK   30  A    between atoms: _67  and  _68
REMARK   31  A    between atoms: _77  and  _79
REMARK   32  A    between atoms: _79  and  _80
REMARK   33  A    between atoms: _79  and  _82
REMARK   34  A    between atoms: _82  and  _83
REMARK   35  A    between atoms: _86  and  _88
REMARK   36  A    between atoms: _88  and  _89
REMARK   37  A    between atoms: _92  and  _94
REMARK   38  A    between atoms: _94  and  _95
REMARK   39  A    between atoms: _94  and  _97
REMARK   40  A    between atoms: _97  and  _98
REMARK   41  A    between atoms: _104  and  _106
REMARK   42  A    between atoms: _106  and  _107
REMARK   43  A    between atoms: _106  and  _109
REMARK   44  A    between atoms: _109  and  _110
REMARK   45  A    between atoms: _115  and  _117
REMARK   46  A    between atoms: _117  and  _118
REMARK   47  A    between atoms: _117  and  _120
REMARK   48  A    between atoms: _120  and  _121
REMARK   49  A    between atoms: _124  and  _126
REMARK   50  A    between atoms: _126  and  _127
REMARK   51  A    between atoms: _126  and  _129
REMARK   52  A    between atoms: _129  and  _130
REMARK   53  A    between atoms: _135  and  _137
REMARK   54  A    between atoms: _137  and  _138
REMARK   55  A    between atoms: _137  and  _140
REMARK   56  A    between atoms: _140  and  _141
REMARK   57  A    between atoms: _147  and  _149
REMARK   58  A    between atoms: _149  and  _150
REMARK   59  A    between atoms: _149  and  _152
REMARK   60  A    between atoms: _152  and  _153
REMARK   61  A    between atoms: _159  and  _161
REMARK   62  A    between atoms: _161  and  _162
REMARK   63  A    between atoms: _161  and  _164
REMARK   64  A    between atoms: _164  and  _165
REMARK   65  A    between atoms: _165  and  _166
REMARK   66  A    between atoms: _169  and  _171
REMARK   67  A    between atoms: _171  and  _172
REMARK   68  A    between atoms: _171  and  _174
REMARK   69  A    between atoms: _174  and  _175
REMARK   70  A    between atoms: _175  and  _176
REMARK   71  A    between atoms: _176  and  _177
REMARK   72  A    between atoms: _186  and  _188
REMARK   73  A    between atoms: _188  and  _189
REMARK   74  A    between atoms: _188  and  _191
REMARK   75  A    between atoms: _191  and  _192
REMARK   76  A    between atoms: _197  and  _199
REMARK   77  A    between atoms: _199  and  _200
REMARK   78  A    between atoms: _199  and  _202
REMARK   79  A    between atoms: _202  and  _203
REMARK   80  A    between atoms: _206  and  _208
REMARK   81  A    between atoms: _208  and  _209
REMARK   82  A    between atoms: _208  and  _211
REMARK   83  A    between atoms: _211  and  _212
REMARK   84  A    between atoms: _215  and  _217
REMARK   85  A    between atoms: _217  and  _218
REMARK   86  A    between atoms: _217  and  _220
REMARK   87  A    between atoms: _220  and  _221
REMARK   88  A    between atoms: _226  and  _228
REMARK   89  A    between atoms: _228  and  _229
REMARK   90  A    between atoms: _228  and  _231
REMARK   91  A    between atoms: _231  and  _232
REMARK   92  A    between atoms: _235  and  _237
REMARK   93  A    between atoms: _237  and  _238
REMARK   94  A    between atoms: _237  and  _240
REMARK   95  A    between atoms: _240  and  _241
REMARK   96  A    between atoms: _246  and  _248
REMARK   97  A    between atoms: _248  and  _249
REMARK   98  A    between atoms: _248  and  _251
REMARK   99  A    between atoms: _251  and  _252
REMARK  100  A    between atoms: _257  and  _259
REMARK  101  A    between atoms: _259  and  _260
REMARK  102  A    between atoms: _259  and  _262
REMARK  103  A    between atoms: _262  and  _263
REMARK  104  A    between atoms: _266  and  _268
REMARK  105  A    between atoms: _268  and  _269
REMARK  106  A    between atoms: _268  and  _271
REMARK  107  A    between atoms: _274  and  _276
REMARK  108  A    between atoms: _276  and  _277
REMARK  109  A    between atoms: _276  and  _279
REMARK  110  A    between atoms: _279  and  _280
REMARK  111  A    between atoms: _284  and  _285
REMARK  112  A    between atoms: _290  and  _292
REMARK  113  A    between atoms: _292  and  _293
REMARK  114  A    between atoms: _292  and  _295
REMARK  115  A    between atoms: _295  and  _296
REMARK  116  A    between atoms: _296  and  _297
REMARK  117  A    between atoms: _300  and  _302
REMARK  118  A    between atoms: _302  and  _303
REMARK  119  A    between atoms: _306  and  _308
REMARK  120  A    between atoms: _308  and  _309
REMARK  121  A    between atoms: _308  and  _311
REMARK  122  A    between atoms: _311  and  _312
REMARK  123  A    between atoms: _315  and  _317
REMARK  124  A    between atoms: _317  and  _318
REMARK  125  A    between atoms: _317  and  _320
REMARK  126  A    between atoms: _320  and  _321
REMARK  127  A    between atoms: _321  and  _322
REMARK  128  A    between atoms: _325  and  _327
REMARK  129  A    between atoms: _327  and  _328
REMARK  130  A    between atoms: _327  and  _330
REMARK  131  A    between atoms: _330  and  _331
REMARK  132  A    between atoms: _336  and  _338
REMARK  133  A    between atoms: _338  and  _339
REMARK  134  A    between atoms: _341  and  _343
REMARK  135  A    between atoms: _343  and  _344
REMARK  136  A    between atoms: _343  and  _346
REMARK  137  A    between atoms: _349  and  _351
REMARK  138  A    between atoms: _351  and  _352
REMARK  139  A    between atoms: _355  and  _357
REMARK  140  A    between atoms: _357  and  _358
REMARK  141  A    between atoms: _357  and  _360
REMARK  142  A    between atoms: _360  and  _361
REMARK  143  A    between atoms: _366  and  _368
REMARK  144  A    between atoms: _368  and  _369
REMARK  145  A    between atoms: _368  and  _371
REMARK  146  A    between atoms: _371  and  _372
REMARK  147  A    between atoms: _372  and  _373
REMARK  148  A    between atoms: _373  and  _374
REMARK  149  A    between atoms: _374  and  _375
REMARK  150  A    between atoms: _379  and  _381
REMARK  151  A    between atoms: _381  and  _382
REMARK  152  A    between atoms: _381  and  _384
REMARK  153  A    between atoms: _384  and  _385
REMARK  154  A    between atoms: _388  and  _390
REMARK  155  A    between atoms: _390  and  _391
REMARK  156  A    between atoms: _390  and  _393
REMARK  157  A    between atoms: _393  and  _394
REMARK  158  A    between atoms: _399  and  _401
REMARK  159  A    between atoms: _401  and  _402
REMARK  160  A    between atoms: _404  and  _406
REMARK  161  A    between atoms: _406  and  _407
REMARK  162  A    between atoms: _406  and  _409
REMARK  163  A    between atoms: _409  and  _410
REMARK  164  A    between atoms: _410  and  _411
REMARK  165  A    between atoms: _411  and  _412
REMARK  166  A    between atoms: _412  and  _413
REMARK  167  A    between atoms: _417  and  _419
REMARK  168  A    between atoms: _419  and  _420
REMARK  169  A    between atoms: _419  and  _422
REMARK  170  A    between atoms: _422  and  _423
REMARK  171  A    between atoms: _423  and  _424
REMARK  172  A    between atoms: _424  and  _425
REMARK  173  A    between atoms: _434  and  _436
REMARK  174  A    between atoms: _436  and  _437
REMARK  175  A    between atoms: _436  and  _439
REMARK  176  A    between atoms: _439  and  _440
REMARK  177  A    between atoms: _445  and  _447
REMARK  178  A    between atoms: _447  and  _448
REMARK  179  A    between atoms: _447  and  _450
REMARK  180  A    between atoms: _450  and  _451
REMARK  181  A    between atoms: _456  and  _457
REMARK  182  A    between atoms: _459  and  _461
REMARK  183  A    between atoms: _461  and  _462
REMARK  184  A    between atoms: _461  and  _464
REMARK  185  A    between atoms: _464  and  _465
REMARK  186  A    between atoms: _465  and  _466
REMARK  187  A    between atoms: _466  and  _467
REMARK  188  A    between atoms: _467  and  _468
REMARK  189  A    between atoms: _472  and  _474
REMARK  190  A    between atoms: _474  and  _475
REMARK  191  A    between atoms: _474  and  _477
REMARK  192  A    between atoms: _477  and  _478
REMARK  193  A    between atoms: _483  and  _484
REMARK  194  A    between atoms: _486  and  _488
REMARK  195  A    between atoms: _488  and  _489
REMARK  196  A    between atoms: _488  and  _491
REMARK  197  A    between atoms: _491  and  _492
REMARK  198  A    between atoms: _494  and  _496
REMARK  199  A    between atoms: _496  and  _497
REMARK  200  A    between atoms: _496  and  _499
REMARK  201  A    between atoms: _499  and  _500
REMARK  202  A    between atoms: _503  and  _505
REMARK  203  A    between atoms: _505  and  _506
REMARK  204  A    between atoms: _505  and  _508
REMARK  205  A    between atoms: _508  and  _509
REMARK  206  A    between atoms: _509  and  _510
REMARK  207  A    between atoms: _513  and  _515
REMARK  208  A    between atoms: _515  and  _516
REMARK  209  A    between atoms: _519  and  _521
REMARK  210  A    between atoms: _521  and  _522
REMARK  211  A    between atoms: _521  and  _524
REMARK  212  A    between atoms: _524  and  _525
REMARK  213  A    between atoms: _527  and  _529
REMARK  214  A    between atoms: _529  and  _530
REMARK  215  A    between atoms: _532  and  _534
REMARK  216  A    between atoms: _534  and  _535
REMARK  217  A    between atoms: _534  and  _537
REMARK  218  A    between atoms: _537  and  _538
REMARK  219  A    between atoms: _541  and  _543
REMARK  220  A    between atoms: _543  and  _544
REMARK  221  A    between atoms: _546  and  _548
REMARK  222  A    between atoms: _548  and  _549
REMARK  223  A    between atoms: _548  and  _551
REMARK  224  A    between atoms: _551  and  _552
REMARK  225  A    between atoms: _557  and  _559
REMARK  226  A    between atoms: _559  and  _560
REMARK  227  A    between atoms: _559  and  _562
REMARK  228  A    between atoms: _562  and  _563
REMARK  229  A    between atoms: _563  and  _564
REMARK  230  A    between atoms: _571  and  _572
REMARK  231  A    between atoms: _572  and  _588
REMARK  232  A    between atoms: _573  and  _575
REMARK  233  A    between atoms: _575  and  _576
REMARK  234  A    between atoms: _576  and  _577
REMARK  235  A    between atoms: _581  and  _583
REMARK  236  A    between atoms: _583  and  _584
REMARK  237  A    between atoms: _583  and  _591
REMARK  238  A    between atoms: _584  and  _585
REMARK  239  A    between atoms: _585  and  _586
REMARK  240  A    between atoms: _586  and  _587
REMARK  241  A    between atoms: _587  and  _588
REMARK  242  A    between atoms: _593  and  _595
REMARK  243  A    between atoms: _595  and  _596
REMARK  244  A    between atoms: _595  and  _598
REMARK  245  A    between atoms: _598  and  _599
REMARK  246  A    between atoms: _602  and  _604
REMARK  247  A    between atoms: _604  and  _605
REMARK  248  A    between atoms: _607  and  _609
REMARK  249  A    between atoms: _609  and  _610
REMARK  250  A    between atoms: _613  and  _615
REMARK  251  A    between atoms: _615  and  _616
REMARK  252  A    between atoms: _615  and  _618
REMARK  253  A    between atoms: _618  and  _619
REMARK  254  A    between atoms: _619  and  _620
REMARK  255  A    between atoms: _620  and  _621
REMARK  256  A    between atoms: _630  and  _632
REMARK  257  A    between atoms: _632  and  _633
REMARK  258  A    between atoms: _632  and  _635
REMARK  259  A    between atoms: _635  and  _636
REMARK  260  A    between atoms: _641  and  _642
REMARK                            x       y       z     vdW  Elec       q    Type
REMARK                         _______ _______ _______ _____ _____    ______ ____
ROOT
ATOM      1  CG  TYR A   1      34.613   7.648  28.800  0.00  0.00    -0.020 A 
ATOM      2  CD2 TYR A   1      35.740   8.249  29.361  0.00  0.00    -0.001 A 
ATOM      3  CE2 TYR A   1      36.017   9.604  29.135  0.00  0.00    +0.036 A 
ATOM      4  CZ  TYR A   1      35.156  10.352  28.353  0.00  0.00    +0.134 A 
ATOM      5  CE1 TYR A   1      34.036   9.773  27.802  0.00  0.00    +0.036 A 
ATOM      6  CD1 TYR A   1      33.769   8.435  28.023  0.00  0.00    -0.001 A 
ENDROOT
BRANCH   4   7
ATOM      7  OH  TYR A   1      35.403  11.690  28.111  0.00  0.00    -0.506 OA
ATOM      8  HH  TYR A   1      35.500  11.836  27.137  0.00  0.00    +0.292 HD
ENDBRANCH   4   7
BRANCH   1   9
ATOM      9  CB  TYR A   1      34.294   6.186  29.058  0.00  0.00    +0.051 C 
BRANCH   9  10
ATOM     10  CA  TYR A   1      34.900   5.186  28.068  0.00  0.00    +0.137 C 
BRANCH  10  11
ATOM     11  N   TYR A   1      34.046   5.039  26.879  0.00  0.00    -0.239 NA
ATOM     12  H   TYR A   1      33.245   5.689  26.744  0.00  0.00    +0.142 HD
ENDBRANCH  10  11
BRANCH  10  13
ATOM     13  C   TYR A   1      35.099   3.842  28.784  0.00  0.00    +0.224 C 
ATOM     14  O   TYR A   1      36.229   3.426  29.039  0.00  0.00    -0.287 OA
ENDBRANCH  10  13
ENDBRANCH   9  10
ENDBRANCH   1   9
TORSDOF 5
REMARK  Name = ../refined-set-2016/3g2l/3g2l_pocket.pdb
REMARK  260 active torsions:
REMARK  status: ('A' for Active; 'I' for Inactive)
REMARK    1  A    between atoms: _1  and  _3
REMARK    2  A    between atoms: _3  and  _4
REMARK    3  A    between atoms: _3  and  _6
REMARK    4  A    between atoms: _6  and  _7
REMARK    5  A    between atoms: _12  and  _13
REMARK    6  A    between atoms: _15  and  _17
REMARK    7  A    between atoms: _17  and  _18
REMARK    8  A    between atoms: _17  and  _20
REMARK    9  A    between atoms: _20  and  _21
REMARK   10  A    between atoms: _21  and  _22
REMARK   11  A    between atoms: _25  and  _27
REMARK   12  A    between atoms: _27  and  _28
REMARK   13  A    between atoms: _27  and  _30
REMARK   14  A    between atoms: _30  and  _31
REMARK   15  A    between atoms: _36  and  _38
REMARK   16  A    between atoms: _38  and  _39
REMARK   17  A    between atoms: _41  and  _43
REMARK   18  A    between atoms: _43  and  _44
REMARK   19  A    between atoms: _46  and  _48
REMARK   20  A    between atoms: _48  and  _49
REMARK   21  A    between atoms: _48  and  _51
REMARK   22  A    between atoms: _51  and  _52
REMARK   23  A    between atoms: _55  and  _57
REMARK   24  A    between atoms: _57  and  _58
REMARK   25  A    between atoms: _60  and  _62
REMARK   26  A    between atoms: _62  and  _63
REMARK   27  A    between atoms: _62  and  _65
REMARK   28  A    between atoms: _65  and  _66
REMARK   29  A    between atoms: _66  and  _67
REMARK   30  A    between atoms: _67  and  _68
REMARK   31  A    between atoms: _77  and  _79
REMARK   32  A    between atoms: _79  and  _80
REMARK   33  A    between atoms: _79  and  _82
REMARK   34  A    between atoms: _82  and  _83
REMARK   35  A    between atoms: _86  and  _88
REMARK   36  A    between atoms: _88  and  _89
REMARK   37  A    between atoms: _92  and  _94
REMARK   38  A    between atoms: _94  and  _95
REMARK   39  A    between atoms: _94  and  _97
REMARK   40  A    between atoms: _97  and  _98
REMARK   41  A    between atoms: _104  and  _106
REMARK   42  A    between atoms: _106  and  _107
REMARK   43  A    between atoms: _106  and  _109
REMARK   44  A    between atoms: _109  and  _110
REMARK   45  A    between atoms: _115  and  _117
REMARK   46  A    between atoms: _117  and  _118
REMARK   47  A    between atoms: _117  and  _120
REMARK   48  A    between atoms: _120  and  _121
REMARK   49  A    between atoms: _124  and  _126
REMARK   50  A    between atoms: _126  and  _127
REMARK   51  A    between atoms: _126  and  _129
REMARK   52  A    between atoms: _129  and  _130
REMARK   53  A    between atoms: _135  and  _137
REMARK   54  A    between atoms: _137  and  _138
REMARK   55  A    between atoms: _137  and  _140
REMARK   56  A    between atoms: _140  and  _141
REMARK   57  A    between atoms: _147  and  _149
REMARK   58  A    between atoms: _149  and  _150
REMARK   59  A    between atoms: _149  and  _152
REMARK   60  A    between atoms: _152  and  _153
REMARK   61  A    between atoms: _159  and  _161
REMARK   62  A    between atoms: _161  and  _162
REMARK   63  A    between atoms: _161  and  _164
REMARK   64  A    between atoms: _164  and  _165
REMARK   65  A    between atoms: _165  and  _166
REMARK   66  A    between atoms: _169  and  _171
REMARK   67  A    between atoms: _171  and  _172
REMARK   68  A    between atoms: _171  and  _174
REMARK   69  A    between atoms: _174  and  _175
REMARK   70  A    between atoms: _175  and  _176
REMARK   71  A    between atoms: _176  and  _177
REMARK   72  A    between atoms: _186  and  _188
REMARK   73  A    between atoms: _188  and  _189
REMARK   74  A    between atoms: _188  and  _191
REMARK   75  A    between atoms: _191  and  _192
REMARK   76  A    between atoms: _197  and  _199
REMARK   77  A    between atoms: _199  and  _200
REMARK   78  A    between atoms: _199  and  _202
REMARK   79  A    between atoms: _202  and  _203
REMARK   80  A    between atoms: _206  and  _208
REMARK   81  A    between atoms: _208  and  _209
REMARK   82  A    between atoms: _208  and  _211
REMARK   83  A    between atoms: _211  and  _212
REMARK   84  A    between atoms: _215  and  _217
REMARK   85  A    between atoms: _217  and  _218
REMARK   86  A    between atoms: _217  and  _220
REMARK   87  A    between atoms: _220  and  _221
REMARK   88  A    between atoms: _226  and  _228
REMARK   89  A    between atoms: _228  and  _229
REMARK   90  A    between atoms: _228  and  _231
REMARK   91  A    between atoms: _231  and  _232
REMARK   92  A    between atoms: _235  and  _237
REMARK   93  A    between atoms: _237  and  _238
REMARK   94  A    between atoms: _237  and  _240
REMARK   95  A    between atoms: _240  and  _241
REMARK   96  A    between atoms: _246  and  _248
REMARK   97  A    between atoms: _248  and  _249
REMARK   98  A    between atoms: _248  and  _251
REMARK   99  A    between atoms: _251  and  _252
REMARK  100  A    between atoms: _257  and  _259
REMARK  101  A    between atoms: _259  and  _260
REMARK  102  A    between atoms: _259  and  _262
REMARK  103  A    between atoms: _262  and  _263
REMARK  104  A    between atoms: _266  and  _268
REMARK  105  A    between atoms: _268  and  _269
REMARK  106  A    between atoms: _268  and  _271
REMARK  107  A    between atoms: _274  and  _276
REMARK  108  A    between atoms: _276  and  _277
REMARK  109  A    between atoms: _276  and  _279
REMARK  110  A    between atoms: _279  and  _280
REMARK  111  A    between atoms: _284  and  _285
REMARK  112  A    between atoms: _290  and  _292
REMARK  113  A    between atoms: _292  and  _293
REMARK  114  A    between atoms: _292  and  _295
REMARK  115  A    between atoms: _295  and  _296
REMARK  116  A    between atoms: _296  and  _297
REMARK  117  A    between atoms: _300  and  _302
REMARK  118  A    between atoms: _302  and  _303
REMARK  119  A    between atoms: _306  and  _308
REMARK  120  A    between atoms: _308  and  _309
REMARK  121  A    between atoms: _308  and  _311
REMARK  122  A    between atoms: _311  and  _312
REMARK  123  A    between atoms: _315  and  _317
REMARK  124  A    between atoms: _317  and  _318
REMARK  125  A    between atoms: _317  and  _320
REMARK  126  A    between atoms: _320  and  _321
REMARK  127  A    between atoms: _321  and  _322
REMARK  128  A    between atoms: _325  and  _327
REMARK  129  A    between atoms: _327  and  _328
REMARK  130  A    between atoms: _327  and  _330
REMARK  131  A    between atoms: _330  and  _331
REMARK  132  A    between atoms: _336  and  _338
REMARK  133  A    between atoms: _338  and  _339
REMARK  134  A    between atoms: _341  and  _343
REMARK  135  A    between atoms: _343  and  _344
REMARK  136  A    between atoms: _343  and  _346
REMARK  137  A    between atoms: _349  and  _351
REMARK  138  A    between atoms: _351  and  _352
REMARK  139  A    between atoms: _355  and  _357
REMARK  140  A    between atoms: _357  and  _358
REMARK  141  A    between atoms: _357  and  _360
REMARK  142  A    between atoms: _360  and  _361
REMARK  143  A    between atoms: _366  and  _368
REMARK  144  A    between atoms: _368  and  _369
REMARK  145  A    between atoms: _368  and  _371
REMARK  146  A    between atoms: _371  and  _372
REMARK  147  A    between atoms: _372  and  _373
REMARK  148  A    between atoms: _373  and  _374
REMARK  149  A    between atoms: _374  and  _375
REMARK  150  A    between atoms: _379  and  _381
REMARK  151  A    between atoms: _381  and  _382
REMARK  152  A    between atoms: _381  and  _384
REMARK  153  A    between atoms: _384  and  _385
REMARK  154  A    between atoms: _388  and  _390
REMARK  155  A    between atoms: _390  and  _391
REMARK  156  A    between atoms: _390  and  _393
REMARK  157  A    between atoms: _393  and  _394
REMARK  158  A    between atoms: _399  and  _401
REMARK  159  A    between atoms: _401  and  _402
REMARK  160  A    between atoms: _404  and  _406
REMARK  161  A    between atoms: _406  and  _407
REMARK  162  A    between atoms: _406  and  _409
REMARK  163  A    between atoms: _409  and  _410
REMARK  164  A    between atoms: _410  and  _411
REMARK  165  A    between atoms: _411  and  _412
REMARK  166  A    between atoms: _412  and  _413
REMARK  167  A    between atoms: _417  and  _419
REMARK  168  A    between atoms: _419  and  _420
REMARK  169  A    between atoms: _419  and  _422
REMARK  170  A    between atoms: _422  and  _423
REMARK  171  A    between atoms: _423  and  _424
REMARK  172  A    between atoms: _424  and  _425
REMARK  173  A    between atoms: _434  and  _436
REMARK  174  A    between atoms: _436  and  _437
REMARK  175  A    between atoms: _436  and  _439
REMARK  176  A    between atoms: _439  and  _440
REMARK  177  A    between atoms: _445  and  _447
REMARK  178  A    between atoms: _447  and  _448
REMARK  179  A    between atoms: _447  and  _450
REMARK  180  A    between atoms: _450  and  _451
REMARK  181  A    between atoms: _456  and  _457
REMARK  182  A    between atoms: _459  and  _461
REMARK  183  A    between atoms: _461  and  _462
REMARK  184  A    between atoms: _461  and  _464
REMARK  185  A    between atoms: _464  and  _465
REMARK  186  A    between atoms: _465  and  _466
REMARK  187  A    between atoms: _466  and  _467
REMARK  188  A    between atoms: _467  and  _468
REMARK  189  A    between atoms: _472  and  _474
REMARK  190  A    between atoms: _474  and  _475
REMARK  191  A    between atoms: _474  and  _477
REMARK  192  A    between atoms: _477  and  _478
REMARK  193  A    between atoms: _483  and  _484
REMARK  194  A    between atoms: _486  and  _488
REMARK  195  A    between atoms: _488  and  _489
REMARK  196  A    between atoms: _488  and  _491
REMARK  197  A    between atoms: _491  and  _492
REMARK  198  A    between atoms: _494  and  _496
REMARK  199  A    between atoms: _496  and  _497
REMARK  200  A    between atoms: _496  and  _499
REMARK  201  A    between atoms: _499  and  _500
REMARK  202  A    between atoms: _503  and  _505
REMARK  203  A    between atoms: _505  and  _506
REMARK  204  A    between atoms: _505  and  _508
REMARK  205  A    between atoms: _508  and  _509
REMARK  206  A    between atoms: _509  and  _510
REMARK  207  A    between atoms: _513  and  _515
REMARK  208  A    between atoms: _515  and  _516
REMARK  209  A    between atoms: _519  and  _521
REMARK  210  A    between atoms: _521  and  _522
REMARK  211  A    between atoms: _521  and  _524
REMARK  212  A    between atoms: _524  and  _525
REMARK  213  A    between atoms: _527  and  _529
REMARK  214  A    between atoms: _529  and  _530
REMARK  215  A    between atoms: _532  and  _534
REMARK  216  A    between atoms: _534  and  _535
REMARK  217  A    between atoms: _534  and  _537
REMARK  218  A    between atoms: _537  and  _538
REMARK  219  A    between atoms: _541  and  _543
REMARK  220  A    between atoms: _543  and  _544
REMARK  221  A    between atoms: _546  and  _548
REMARK  222  A    between atoms: _548  and  _549
REMARK  223  A    between atoms: _548  and  _551
REMARK  224  A    between atoms: _551  and  _552
REMARK  225  A    between atoms: _557  and  _559
REMARK  226  A    between atoms: _559  and  _560
REMARK  227  A    between atoms: _559  and  _562
REMARK  228  A    between atoms: _562  and  _563
REMARK  229  A    between atoms: _563  and  _564
REMARK  230  A    between atoms: _571  and  _572
REMARK  231  A    between atoms: _572  and  _588
REMARK  232  A    between atoms: _573  and  _575
REMARK  233  A    between atoms: _575  and  _576
REMARK  234  A    between atoms: _576  and  _577
REMARK  235  A    between atoms: _581  and  _583
REMARK  236  A    between atoms: _583  and  _584
REMARK  237  A    between atoms: _583  and  _591
REMARK  238  A    between atoms: _584  and  _585
REMARK  239  A    between atoms: _585  and  _586
REMARK  240  A    between atoms: _586  and  _587
REMARK  241  A    between atoms: _587  and  _588
REMARK  242  A    between atoms: _593  and  _595
REMARK  243  A    between atoms: _595  and  _596
REMARK  244  A    between atoms: _595  and  _598
REMARK  245  A    between atoms: _598  and  _599
REMARK  246  A    between atoms: _602  and  _604
REMARK  247  A    between atoms: _604  and  _605
REMARK  248  A    between atoms: _607  and  _609
REMARK  249  A    between atoms: _609  and  _610
REMARK  250  A    between atoms: _613  and  _615
REMARK  251  A    between atoms: _615  and  _616
REMARK  252  A    between atoms: _615  and  _618
REMARK  253  A    between atoms: _618  and  _619
REMARK  254  A    between atoms: _619  and  _620
REMARK  255  A    between atoms: _620  and  _621
REMARK  256  A    between atoms: _630  and  _632
REMARK  257  A    between atoms: _632  and  _633
REMARK  258  A    between atoms: _632  and  _635
REMARK  259  A    between atoms: _635  and  _636
REMARK  260  A    between atoms: _641  and  _642
REMARK                            x       y       z     vdW  Elec       q    Type
REMARK                         _______ _______ _______ _____ _____    ______ ____
ROOT
ATOM      1  O   HOH     1      34.899  26.274  38.640  0.00  0.00    +0.000 OA
ENDROOT
TORSDOF 0
REMARK  Name = ../refined-set-2016/3g2l/3g2l_pocket.pdb
REMARK  260 active torsions:
REMARK  status: ('A' for Active; 'I' for Inactive)
REMARK    1  A    between atoms: _1  and  _3
REMARK    2  A    between atoms: _3  and  _4
REMARK    3  A    between atoms: _3  and  _6
REMARK    4  A    between atoms: _6  and  _7
REMARK    5  A    between atoms: _12  and  _13
REMARK    6  A    between atoms: _15  and  _17
REMARK    7  A    between atoms: _17  and  _18
REMARK    8  A    between atoms: _17  and  _20
REMARK    9  A    between atoms: _20  and  _21
REMARK   10  A    between atoms: _21  and  _22
REMARK   11  A    between atoms: _25  and  _27
REMARK   12  A    between atoms: _27  and  _28
REMARK   13  A    between atoms: _27  and  _30
REMARK   14  A    between atoms: _30  and  _31
REMARK   15  A    between atoms: _36  and  _38
REMARK   16  A    between atoms: _38  and  _39
REMARK   17  A    between atoms: _41  and  _43
REMARK   18  A    between atoms: _43  and  _44
REMARK   19  A    between atoms: _46  and  _48
REMARK   20  A    between atoms: _48  and  _49
REMARK   21  A    between atoms: _48  and  _51
REMARK   22  A    between atoms: _51  and  _52
REMARK   23  A    between atoms: _55  and  _57
REMARK   24  A    between atoms: _57  and  _58
REMARK   25  A    between atoms: _60  and  _62
REMARK   26  A    between atoms: _62  and  _63
REMARK   27  A    between atoms: _62  and  _65
REMARK   28  A    between atoms: _65  and  _66
REMARK   29  A    between atoms: _66  and  _67
REMARK   30  A    between atoms: _67  and  _68
REMARK   31  A    between atoms: _77  and  _79
REMARK   32  A    between atoms: _79  and  _80
REMARK   33  A    between atoms: _79  and  _82
REMARK   34  A    between atoms: _82  and  _83
REMARK   35  A    between atoms: _86  and  _88
REMARK   36  A    between atoms: _88  and  _89
REMARK   37  A    between atoms: _92  and  _94
REMARK   38  A    between atoms: _94  and  _95
REMARK   39  A    between atoms: _94  and  _97
REMARK   40  A    between atoms: _97  and  _98
REMARK   41  A    between atoms: _104  and  _106
REMARK   42  A    between atoms: _106  and  _107
REMARK   43  A    between atoms: _106  and  _109
REMARK   44  A    between atoms: _109  and  _110
REMARK   45  A    between atoms: _115  and  _117
REMARK   46  A    between atoms: _117  and  _118
REMARK   47  A    between atoms: _117  and  _120
REMARK   48  A    between atoms: _120  and  _121
REMARK   49  A    between atoms: _124  and  _126
REMARK   50  A    between atoms: _126  and  _127
REMARK   51  A    between atoms: _126  and  _129
REMARK   52  A    between atoms: _129  and  _130
REMARK   53  A    between atoms: _135  and  _137
REMARK   54  A    between atoms: _137  and  _138
REMARK   55  A    between atoms: _137  and  _140
REMARK   56  A    between atoms: _140  and  _141
REMARK   57  A    between atoms: _147  and  _149
REMARK   58  A    between atoms: _149  and  _150
REMARK   59  A    between atoms: _149  and  _152
REMARK   60  A    between atoms: _152  and  _153
REMARK   61  A    between atoms: _159  and  _161
REMARK   62  A    between atoms: _161  and  _162
REMARK   63  A    between atoms: _161  and  _164
REMARK   64  A    between atoms: _164  and  _165
REMARK   65  A    between atoms: _165  and  _166
REMARK   66  A    between atoms: _169  and  _171
REMARK   67  A    between atoms: _171  and  _172
REMARK   68  A    between atoms: _171  and  _174
REMARK   69  A    between atoms: _174  and  _175
REMARK   70  A    between atoms: _175  and  _176
REMARK   71  A    between atoms: _176  and  _177
REMARK   72  A    between atoms: _186  and  _188
REMARK   73  A    between atoms: _188  and  _189
REMARK   74  A    between atoms: _188  and  _191
REMARK   75  A    between atoms: _191  and  _192
REMARK   76  A    between atoms: _197  and  _199
REMARK   77  A    between atoms: _199  and  _200
REMARK   78  A    between atoms: _199  and  _202
REMARK   79  A    between atoms: _202  and  _203
REMARK   80  A    between atoms: _206  and  _208
REMARK   81  A    between atoms: _208  and  _209
REMARK   82  A    between atoms: _208  and  _211
REMARK   83  A    between atoms: _211  and  _212
REMARK   84  A    between atoms: _215  and  _217
REMARK   85  A    between atoms: _217  and  _218
REMARK   86  A    between atoms: _217  and  _220
REMARK   87  A    between atoms: _220  and  _221
REMARK   88  A    between atoms: _226  and  _228
REMARK   89  A    between atoms: _228  and  _229
REMARK   90  A    between atoms: _228  and  _231
REMARK   91  A    between atoms: _231  and  _232
REMARK   92  A    between atoms: _235  and  _237
REMARK   93  A    between atoms: _237  and  _238
REMARK   94  A    between atoms: _237  and  _240
REMARK   95  A    between atoms: _240  and  _241
REMARK   96  A    between atoms: _246  and  _248
REMARK   97  A    between atoms: _248  and  _249
REMARK   98  A    between atoms: _248  and  _251
REMARK   99  A    between atoms: _251  and  _252
REMARK  100  A    between atoms: _257  and  _259
REMARK  101  A    between atoms: _259  and  _260
REMARK  102  A    between atoms: _259  and  _262
REMARK  103  A    between atoms: _262  and  _263
REMARK  104  A    between atoms: _266  and  _268
REMARK  105  A    between atoms: _268  and  _269
REMARK  106  A    between atoms: _268  and  _271
REMARK  107  A    between atoms: _274  and  _276
REMARK  108  A    between atoms: _276  and  _277
REMARK  109  A    between atoms: _276  and  _279
REMARK  110  A    between atoms: _279  and  _280
REMARK  111  A    between atoms: _284  and  _285
REMARK  112  A    between atoms: _290  and  _292
REMARK  113  A    between atoms: _292  and  _293
REMARK  114  A    between atoms: _292  and  _295
REMARK  115  A    between atoms: _295  and  _296
REMARK  116  A    between atoms: _296  and  _297
REMARK  117  A    between atoms: _300  and  _302
REMARK  118  A    between atoms: _302  and  _303
REMARK  119  A    between atoms: _306  and  _308
REMARK  120  A    between atoms: _308  and  _309
REMARK  121  A    between atoms: _308  and  _311
REMARK  122  A    between atoms: _311  and  _312
REMARK  123  A    between atoms: _315  and  _317
REMARK  124  A    between atoms: _317  and  _318
REMARK  125  A    between atoms: _317  and  _320
REMARK  126  A    between atoms: _320  and  _321
REMARK  127  A    between atoms: _321  and  _322
REMARK  128  A    between atoms: _325  and  _327
REMARK  129  A    between atoms: _327  and  _328
REMARK  130  A    between atoms: _327  and  _330
REMARK  131  A    between atoms: _330  and  _331
REMARK  132  A    between atoms: _336  and  _338
REMARK  133  A    between atoms: _338  and  _339
REMARK  134  A    between atoms: _341  and  _343
REMARK  135  A    between atoms: _343  and  _344
REMARK  136  A    between atoms: _343  and  _346
REMARK  137  A    between atoms: _349  and  _351
REMARK  138  A    between atoms: _351  and  _352
REMARK  139  A    between atoms: _355  and  _357
REMARK  140  A    between atoms: _357  and  _358
REMARK  141  A    between atoms: _357  and  _360
REMARK  142  A    between atoms: _360  and  _361
REMARK  143  A    between atoms: _366  and  _368
REMARK  144  A    between atoms: _368  and  _369
REMARK  145  A    between atoms: _368  and  _371
REMARK  146  A    between atoms: _371  and  _372
REMARK  147  A    between atoms: _372  and  _373
REMARK  148  A    between atoms: _373  and  _374
REMARK  149  A    between atoms: _374  and  _375
REMARK  150  A    between atoms: _379  and  _381
REMARK  151  A    between atoms: _381  and  _382
REMARK  152  A    between atoms: _381  and  _384
REMARK  153  A    between atoms: _384  and  _385
REMARK  154  A    between atoms: _388  and  _390
REMARK  155  A    between atoms: _390  and  _391
REMARK  156  A    between atoms: _390  and  _393
REMARK  157  A    between atoms: _393  and  _394
REMARK  158  A    between atoms: _399  and  _401
REMARK  159  A    between atoms: _401  and  _402
REMARK  160  A    between atoms: _404  and  _406
REMARK  161  A    between atoms: _406  and  _407
REMARK  162  A    between atoms: _406  and  _409
REMARK  163  A    between atoms: _409  and  _410
REMARK  164  A    between atoms: _410  and  _411
REMARK  165  A    between atoms: _411  and  _412
REMARK  166  A    between atoms: _412  and  _413
REMARK  167  A    between atoms: _417  and  _419
REMARK  168  A    between atoms: _419  and  _420
REMARK  169  A    between atoms: _419  and  _422
REMARK  170  A    between atoms: _422  and  _423
REMARK  171  A    between atoms: _423  and  _424
REMARK  172  A    between atoms: _424  and  _425
REMARK  173  A    between atoms: _434  and  _436
REMARK  174  A    between atoms: _436  and  _437
REMARK  175  A    between atoms: _436  and  _439
REMARK  176  A    between atoms: _439  and  _440
REMARK  177  A    between atoms: _445  and  _447
REMARK  178  A    between atoms: _447  and  _448
REMARK  179  A    between atoms: _447  and  _450
REMARK  180  A    between atoms: _450  and  _451
REMARK  181  A    between atoms: _456  and  _457
REMARK  182  A    between atoms: _459  and  _461
REMARK  183  A    between atoms: _461  and  _462
REMARK  184  A    between atoms: _461  and  _464
REMARK  185  A    between atoms: _464  and  _465
REMARK  186  A    between atoms: _465  and  _466
REMARK  187  A    between atoms: _466  and  _467
REMARK  188  A    between atoms: _467  and  _468
REMARK  189  A    between atoms: _472  and  _474
REMARK  190  A    between atoms: _474  and  _475
REMARK  191  A    between atoms: _474  and  _477
REMARK  192  A    between atoms: _477  and  _478
REMARK  193  A    between atoms: _483  and  _484
REMARK  194  A    between atoms: _486  and  _488
REMARK  195  A    between atoms: _488  and  _489
REMARK  196  A    between atoms: _488  and  _491
REMARK  197  A    between atoms: _491  and  _492
REMARK  198  A    between atoms: _494  and  _496
REMARK  199  A    between atoms: _496  and  _497
REMARK  200  A    between atoms: _496  and  _499
REMARK  201  A    between atoms: _499  and  _500
REMARK  202  A    between atoms: _503  and  _505
REMARK  203  A    between atoms: _505  and  _506
REMARK  204  A    between atoms: _505  and  _508
REMARK  205  A    between atoms: _508  and  _509
REMARK  206  A    between atoms: _509  and  _510
REMARK  207  A    between atoms: _513  and  _515
REMARK  208  A    between atoms: _515  and  _516
REMARK  209  A    between atoms: _519  and  _521
REMARK  210  A    between atoms: _521  and  _522
REMARK  211  A    between atoms: _521  and  _524
REMARK  212  A    between atoms: _524  and  _525
REMARK  213  A    between atoms: _527  and  _529
REMARK  214  A    between atoms: _529  and  _530
REMARK  215  A    between atoms: _532  and  _534
REMARK  216  A    between atoms: _534  and  _535
REMARK  217  A    between atoms: _534  and  _537
REMARK  218  A    between atoms: _537  and  _538
REMARK  219  A    between atoms: _541  and  _543
REMARK  220  A    between atoms: _543  and  _544
REMARK  221  A    between atoms: _546  and  _548
REMARK  222  A    between atoms: _548  and  _549
REMARK  223  A    between atoms: _548  and  _551
REMARK  224  A    between atoms: _551  and  _552
REMARK  225  A    between atoms: _557  and  _559
REMARK  226  A    between atoms: _559  and  _560
REMARK  227  A    between atoms: _559  and  _562
REMARK  228  A    between atoms: _562  and  _563
REMARK  229  A    between atoms: _563  and  _564
REMARK  230  A    between atoms: _571  and  _572
REMARK  231  A    between atoms: _572  and  _588
REMARK  232  A    between atoms: _573  and  _575
REMARK  233  A    between atoms: _575  and  _576
REMARK  234  A    between atoms: _576  and  _577
REMARK  235  A    between atoms: _581  and  _583
REMARK  236  A    between atoms: _583  and  _584
REMARK  237  A    between atoms: _583  and  _591
REMARK  238  A    between atoms: _584  and  _585
REMARK  239  A    between atoms: _585  and  _586
REMARK  240  A    between atoms: _586  and  _587
REMARK  241  A    between atoms: _587  and  _588
REMARK  242  A    between atoms: _593  and  _595
REMARK  243  A    between atoms: _595  and  _596
REMARK  244  A    between atoms: _595  and  _598
REMARK  245  A    between atoms: _598  and  _599
REMARK  246  A    between atoms: _602  and  _604
REMARK  247  A    between atoms: _604  and  _605
REMARK  248  A    between atoms: _607  and  _609
REMARK  249  A    between atoms: _609  and  _610
REMARK  250  A    between atoms: _613  and  _615
REMARK  251  A    between atoms: _615  and  _616
REMARK  252  A    between atoms: _615  and  _618
REMARK  253  A    between atoms: _618  and  _619
REMARK  254  A    between atoms: _619  and  _620
REMARK  255  A    between atoms: _620  and  _621
REMARK  256  A    between atoms: _630  and  _632
REMARK  257  A    between atoms: _632  and  _633
REMARK  258  A    between atoms: _632  and  _635
REMARK  259  A    between atoms: _635  and  _636
REMARK  260  A    between atoms: _641  and  _642
REMARK                            x       y       z     vdW  Elec       q    Type
REMARK                         _______ _______ _______ _____ _____    ______ ____
ROOT
ATOM      1  O   HOH     1      35.170  25.747  34.650  0.00  0.00    +0.000 OA
ENDROOT
TORSDOF 0
REMARK  Name = ../refined-set-2016/3g2l/3g2l_pocket.pdb
REMARK  260 active torsions:
REMARK  status: ('A' for Active; 'I' for Inactive)
REMARK    1  A    between atoms: _1  and  _3
REMARK    2  A    between atoms: _3  and  _4
REMARK    3  A    between atoms: _3  and  _6
REMARK    4  A    between atoms: _6  and  _7
REMARK    5  A    between atoms: _12  and  _13
REMARK    6  A    between atoms: _15  and  _17
REMARK    7  A    between atoms: _17  and  _18
REMARK    8  A    between atoms: _17  and  _20
REMARK    9  A    between atoms: _20  and  _21
REMARK   10  A    between atoms: _21  and  _22
REMARK   11  A    between atoms: _25  and  _27
REMARK   12  A    between atoms: _27  and  _28
REMARK   13  A    between atoms: _27  and  _30
REMARK   14  A    between atoms: _30  and  _31
REMARK   15  A    between atoms: _36  and  _38
REMARK   16  A    between atoms: _38  and  _39
REMARK   17  A    between atoms: _41  and  _43
REMARK   18  A    between atoms: _43  and  _44
REMARK   19  A    between atoms: _46  and  _48
REMARK   20  A    between atoms: _48  and  _49
REMARK   21  A    between atoms: _48  and  _51
REMARK   22  A    between atoms: _51  and  _52
REMARK   23  A    between atoms: _55  and  _57
REMARK   24  A    between atoms: _57  and  _58
REMARK   25  A    between atoms: _60  and  _62
REMARK   26  A    between atoms: _62  and  _63
REMARK   27  A    between atoms: _62  and  _65
REMARK   28  A    between atoms: _65  and  _66
REMARK   29  A    between atoms: _66  and  _67
REMARK   30  A    between atoms: _67  and  _68
REMARK   31  A    between atoms: _77  and  _79
REMARK   32  A    between atoms: _79  and  _80
REMARK   33  A    between atoms: _79  and  _82
REMARK   34  A    between atoms: _82  and  _83
REMARK   35  A    between atoms: _86  and  _88
REMARK   36  A    between atoms: _88  and  _89
REMARK   37  A    between atoms: _92  and  _94
REMARK   38  A    between atoms: _94  and  _95
REMARK   39  A    between atoms: _94  and  _97
REMARK   40  A    between atoms: _97  and  _98
REMARK   41  A    between atoms: _104  and  _106
REMARK   42  A    between atoms: _106  and  _107
REMARK   43  A    between atoms: _106  and  _109
REMARK   44  A    between atoms: _109  and  _110
REMARK   45  A    between atoms: _115  and  _117
REMARK   46  A    between atoms: _117  and  _118
REMARK   47  A    between atoms: _117  and  _120
REMARK   48  A    between atoms: _120  and  _121
REMARK   49  A    between atoms: _124  and  _126
REMARK   50  A    between atoms: _126  and  _127
REMARK   51  A    between atoms: _126  and  _129
REMARK   52  A    between atoms: _129  and  _130
REMARK   53  A    between atoms: _135  and  _137
REMARK   54  A    between atoms: _137  and  _138
REMARK   55  A    between atoms: _137  and  _140
REMARK   56  A    between atoms: _140  and  _141
REMARK   57  A    between atoms: _147  and  _149
REMARK   58  A    between atoms: _149  and  _150
REMARK   59  A    between atoms: _149  and  _152
REMARK   60  A    between atoms: _152  and  _153
REMARK   61  A    between atoms: _159  and  _161
REMARK   62  A    between atoms: _161  and  _162
REMARK   63  A    between atoms: _161  and  _164
REMARK   64  A    between atoms: _164  and  _165
REMARK   65  A    between atoms: _165  and  _166
REMARK   66  A    between atoms: _169  and  _171
REMARK   67  A    between atoms: _171  and  _172
REMARK   68  A    between atoms: _171  and  _174
REMARK   69  A    between atoms: _174  and  _175
REMARK   70  A    between atoms: _175  and  _176
REMARK   71  A    between atoms: _176  and  _177
REMARK   72  A    between atoms: _186  and  _188
REMARK   73  A    between atoms: _188  and  _189
REMARK   74  A    between atoms: _188  and  _191
REMARK   75  A    between atoms: _191  and  _192
REMARK   76  A    between atoms: _197  and  _199
REMARK   77  A    between atoms: _199  and  _200
REMARK   78  A    between atoms: _199  and  _202
REMARK   79  A    between atoms: _202  and  _203
REMARK   80  A    between atoms: _206  and  _208
REMARK   81  A    between atoms: _208  and  _209
REMARK   82  A    between atoms: _208  and  _211
REMARK   83  A    between atoms: _211  and  _212
REMARK   84  A    between atoms: _215  and  _217
REMARK   85  A    between atoms: _217  and  _218
REMARK   86  A    between atoms: _217  and  _220
REMARK   87  A    between atoms: _220  and  _221
REMARK   88  A    between atoms: _226  and  _228
REMARK   89  A    between atoms: _228  and  _229
REMARK   90  A    between atoms: _228  and  _231
REMARK   91  A    between atoms: _231  and  _232
REMARK   92  A    between atoms: _235  and  _237
REMARK   93  A    between atoms: _237  and  _238
REMARK   94  A    between atoms: _237  and  _240
REMARK   95  A    between atoms: _240  and  _241
REMARK   96  A    between atoms: _246  and  _248
REMARK   97  A    between atoms: _248  and  _249
REMARK   98  A    between atoms: _248  and  _251
REMARK   99  A    between atoms: _251  and  _252
REMARK  100  A    between atoms: _257  and  _259
REMARK  101  A    between atoms: _259  and  _260
REMARK  102  A    between atoms: _259  and  _262
REMARK  103  A    between atoms: _262  and  _263
REMARK  104  A    between atoms: _266  and  _268
REMARK  105  A    between atoms: _268  and  _269
REMARK  106  A    between atoms: _268  and  _271
REMARK  107  A    between atoms: _274  and  _276
REMARK  108  A    between atoms: _276  and  _277
REMARK  109  A    between atoms: _276  and  _279
REMARK  110  A    between atoms: _279  and  _280
REMARK  111  A    between atoms: _284  and  _285
REMARK  112  A    between atoms: _290  and  _292
REMARK  113  A    between atoms: _292  and  _293
REMARK  114  A    between atoms: _292  and  _295
REMARK  115  A    between atoms: _295  and  _296
REMARK  116  A    between atoms: _296  and  _297
REMARK  117  A    between atoms: _300  and  _302
REMARK  118  A    between atoms: _302  and  _303
REMARK  119  A    between atoms: _306  and  _308
REMARK  120  A    between atoms: _308  and  _309
REMARK  121  A    between atoms: _308  and  _311
REMARK  122  A    between atoms: _311  and  _312
REMARK  123  A    between atoms: _315  and  _317
REMARK  124  A    between atoms: _317  and  _318
REMARK  125  A    between atoms: _317  and  _320
REMARK  126  A    between atoms: _320  and  _321
REMARK  127  A    between atoms: _321  and  _322
REMARK  128  A    between atoms: _325  and  _327
REMARK  129  A    between atoms: _327  and  _328
REMARK  130  A    between atoms: _327  and  _330
REMARK  131  A    between atoms: _330  and  _331
REMARK  132  A    between atoms: _336  and  _338
REMARK  133  A    between atoms: _338  and  _339
REMARK  134  A    between atoms: _341  and  _343
REMARK  135  A    between atoms: _343  and  _344
REMARK  136  A    between atoms: _343  and  _346
REMARK  137  A    between atoms: _349  and  _351
REMARK  138  A    between atoms: _351  and  _352
REMARK  139  A    between atoms: _355  and  _357
REMARK  140  A    between atoms: _357  and  _358
REMARK  141  A    between atoms: _357  and  _360
REMARK  142  A    between atoms: _360  and  _361
REMARK  143  A    between atoms: _366  and  _368
REMARK  144  A    between atoms: _368  and  _369
REMARK  145  A    between atoms: _368  and  _371
REMARK  146  A    between atoms: _371  and  _372
REMARK  147  A    between atoms: _372  and  _373
REMARK  148  A    between atoms: _373  and  _374
REMARK  149  A    between atoms: _374  and  _375
REMARK  150  A    between atoms: _379  and  _381
REMARK  151  A    between atoms: _381  and  _382
REMARK  152  A    between atoms: _381  and  _384
REMARK  153  A    between atoms: _384  and  _385
REMARK  154  A    between atoms: _388  and  _390
REMARK  155  A    between atoms: _390  and  _391
REMARK  156  A    between atoms: _390  and  _393
REMARK  157  A    between atoms: _393  and  _394
REMARK  158  A    between atoms: _399  and  _401
REMARK  159  A    between atoms: _401  and  _402
REMARK  160  A    between atoms: _404  and  _406
REMARK  161  A    between atoms: _406  and  _407
REMARK  162  A    between atoms: _406  and  _409
REMARK  163  A    between atoms: _409  and  _410
REMARK  164  A    between atoms: _410  and  _411
REMARK  165  A    between atoms: _411  and  _412
REMARK  166  A    between atoms: _412  and  _413
REMARK  167  A    between atoms: _417  and  _419
REMARK  168  A    between atoms: _419  and  _420
REMARK  169  A    between atoms: _419  and  _422
REMARK  170  A    between atoms: _422  and  _423
REMARK  171  A    between atoms: _423  and  _424
REMARK  172  A    between atoms: _424  and  _425
REMARK  173  A    between atoms: _434  and  _436
REMARK  174  A    between atoms: _436  and  _437
REMARK  175  A    between atoms: _436  and  _439
REMARK  176  A    between atoms: _439  and  _440
REMARK  177  A    between atoms: _445  and  _447
REMARK  178  A    between atoms: _447  and  _448
REMARK  179  A    between atoms: _447  and  _450
REMARK  180  A    between atoms: _450  and  _451
REMARK  181  A    between atoms: _456  and  _457
REMARK  182  A    between atoms: _459  and  _461
REMARK  183  A    between atoms: _461  and  _462
REMARK  184  A    between atoms: _461  and  _464
REMARK  185  A    between atoms: _464  and  _465
REMARK  186  A    between atoms: _465  and  _466
REMARK  187  A    between atoms: _466  and  _467
REMARK  188  A    between atoms: _467  and  _468
REMARK  189  A    between atoms: _472  and  _474
REMARK  190  A    between atoms: _474  and  _475
REMARK  191  A    between atoms: _474  and  _477
REMARK  192  A    between atoms: _477  and  _478
REMARK  193  A    between atoms: _483  and  _484
REMARK  194  A    between atoms: _486  and  _488
REMARK  195  A    between atoms: _488  and  _489
REMARK  196  A    between atoms: _488  and  _491
REMARK  197  A    between atoms: _491  and  _492
REMARK  198  A    between atoms: _494  and  _496
REMARK  199  A    between atoms: _496  and  _497
REMARK  200  A    between atoms: _496  and  _499
REMARK  201  A    between atoms: _499  and  _500
REMARK  202  A    between atoms: _503  and  _505
REMARK  203  A    between atoms: _505  and  _506
REMARK  204  A    between atoms: _505  and  _508
REMARK  205  A    between atoms: _508  and  _509
REMARK  206  A    between atoms: _509  and  _510
REMARK  207  A    between atoms: _513  and  _515
REMARK  208  A    between atoms: _515  and  _516
REMARK  209  A    between atoms: _519  and  _521
REMARK  210  A    between atoms: _521  and  _522
REMARK  211  A    between atoms: _521  and  _524
REMARK  212  A    between atoms: _524  and  _525
REMARK  213  A    between atoms: _527  and  _529
REMARK  214  A    between atoms: _529  and  _530
REMARK  215  A    between atoms: _532  and  _534
REMARK  216  A    between atoms: _534  and  _535
REMARK  217  A    between atoms: _534  and  _537
REMARK  218  A    between atoms: _537  and  _538
REMARK  219  A    between atoms: _541  and  _543
REMARK  220  A    between atoms: _543  and  _544
REMARK  221  A    between atoms: _546  and  _548
REMARK  222  A    between atoms: _548  and  _549
REMARK  223  A    between atoms: _548  and  _551
REMARK  224  A    between atoms: _551  and  _552
REMARK  225  A    between atoms: _557  and  _559
REMARK  226  A    between atoms: _559  and  _560
REMARK  227  A    between atoms: _559  and  _562
REMARK  228  A    between atoms: _562  and  _563
REMARK  229  A    between atoms: _563  and  _564
REMARK  230  A    between atoms: _571  and  _572
REMARK  231  A    between atoms: _572  and  _588
REMARK  232  A    between atoms: _573  and  _575
REMARK  233  A    between atoms: _575  and  _576
REMARK  234  A    between atoms: _576  and  _577
REMARK  235  A    between atoms: _581  and  _583
REMARK  236  A    between atoms: _583  and  _584
REMARK  237  A    between atoms: _583  and  _591
REMARK  238  A    between atoms: _584  and  _585
REMARK  239  A    between atoms: _585  and  _586
REMARK  240  A    between atoms: _586  and  _587
REMARK  241  A    between atoms: _587  and  _588
REMARK  242  A    between atoms: _593  and  _595
REMARK  243  A    between atoms: _595  and  _596
REMARK  244  A    between atoms: _595  and  _598
REMARK  245  A    between atoms: _598  and  _599
REMARK  246  A    between atoms: _602  and  _604
REMARK  247  A    between atoms: _604  and  _605
REMARK  248  A    between atoms: _607  and  _609
REMARK  249  A    between atoms: _609  and  _610
REMARK  250  A    between atoms: _613  and  _615
REMARK  251  A    between atoms: _615  and  _616
REMARK  252  A    between atoms: _615  and  _618
REMARK  253  A    between atoms: _618  and  _619
REMARK  254  A    between atoms: _619  and  _620
REMARK  255  A    between atoms: _620  and  _621
REMARK  256  A    between atoms: _630  and  _632
REMARK  257  A    between atoms: _632  and  _633
REMARK  258  A    between atoms: _632  and  _635
REMARK  259  A    between atoms: _635  and  _636
REMARK  260  A    between atoms: _641  and  _642
REMARK                            x       y       z     vdW  Elec       q    Type
REMARK                         _______ _______ _______ _____ _____    ______ ____
ROOT
ATOM      1  O   HOH     1      32.682  25.786  32.536  0.00  0.00    +0.000 OA
ENDROOT
TORSDOF 0
REMARK  Name = ../refined-set-2016/3g2l/3g2l_pocket.pdb
REMARK  260 active torsions:
REMARK  status: ('A' for Active; 'I' for Inactive)
REMARK    1  A    between atoms: _1  and  _3
REMARK    2  A    between atoms: _3  and  _4
REMARK    3  A    between atoms: _3  and  _6
REMARK    4  A    between atoms: _6  and  _7
REMARK    5  A    between atoms: _12  and  _13
REMARK    6  A    between atoms: _15  and  _17
REMARK    7  A    between atoms: _17  and  _18
REMARK    8  A    between atoms: _17  and  _20
REMARK    9  A    between atoms: _20  and  _21
REMARK   10  A    between atoms: _21  and  _22
REMARK   11  A    between atoms: _25  and  _27
REMARK   12  A    between atoms: _27  and  _28
REMARK   13  A    between atoms: _27  and  _30
REMARK   14  A    between atoms: _30  and  _31
REMARK   15  A    between atoms: _36  and  _38
REMARK   16  A    between atoms: _38  and  _39
REMARK   17  A    between atoms: _41  and  _43
REMARK   18  A    between atoms: _43  and  _44
REMARK   19  A    between atoms: _46  and  _48
REMARK   20  A    between atoms: _48  and  _49
REMARK   21  A    between atoms: _48  and  _51
REMARK   22  A    between atoms: _51  and  _52
REMARK   23  A    between atoms: _55  and  _57
REMARK   24  A    between atoms: _57  and  _58
REMARK   25  A    between atoms: _60  and  _62
REMARK   26  A    between atoms: _62  and  _63
REMARK   27  A    between atoms: _62  and  _65
REMARK   28  A    between atoms: _65  and  _66
REMARK   29  A    between atoms: _66  and  _67
REMARK   30  A    between atoms: _67  and  _68
REMARK   31  A    between atoms: _77  and  _79
REMARK   32  A    between atoms: _79  and  _80
REMARK   33  A    between atoms: _79  and  _82
REMARK   34  A    between atoms: _82  and  _83
REMARK   35  A    between atoms: _86  and  _88
REMARK   36  A    between atoms: _88  and  _89
REMARK   37  A    between atoms: _92  and  _94
REMARK   38  A    between atoms: _94  and  _95
REMARK   39  A    between atoms: _94  and  _97
REMARK   40  A    between atoms: _97  and  _98
REMARK   41  A    between atoms: _104  and  _106
REMARK   42  A    between atoms: _106  and  _107
REMARK   43  A    between atoms: _106  and  _109
REMARK   44  A    between atoms: _109  and  _110
REMARK   45  A    between atoms: _115  and  _117
REMARK   46  A    between atoms: _117  and  _118
REMARK   47  A    between atoms: _117  and  _120
REMARK   48  A    between atoms: _120  and  _121
REMARK   49  A    between atoms: _124  and  _126
REMARK   50  A    between atoms: _126  and  _127
REMARK   51  A    between atoms: _126  and  _129
REMARK   52  A    between atoms: _129  and  _130
REMARK   53  A    between atoms: _135  and  _137
REMARK   54  A    between atoms: _137  and  _138
REMARK   55  A    between atoms: _137  and  _140
REMARK   56  A    between atoms: _140  and  _141
REMARK   57  A    between atoms: _147  and  _149
REMARK   58  A    between atoms: _149  and  _150
REMARK   59  A    between atoms: _149  and  _152
REMARK   60  A    between atoms: _152  and  _153
REMARK   61  A    between atoms: _159  and  _161
REMARK   62  A    between atoms: _161  and  _162
REMARK   63  A    between atoms: _161  and  _164
REMARK   64  A    between atoms: _164  and  _165
REMARK   65  A    between atoms: _165  and  _166
REMARK   66  A    between atoms: _169  and  _171
REMARK   67  A    between atoms: _171  and  _172
REMARK   68  A    between atoms: _171  and  _174
REMARK   69  A    between atoms: _174  and  _175
REMARK   70  A    between atoms: _175  and  _176
REMARK   71  A    between atoms: _176  and  _177
REMARK   72  A    between atoms: _186  and  _188
REMARK   73  A    between atoms: _188  and  _189
REMARK   74  A    between atoms: _188  and  _191
REMARK   75  A    between atoms: _191  and  _192
REMARK   76  A    between atoms: _197  and  _199
REMARK   77  A    between atoms: _199  and  _200
REMARK   78  A    between atoms: _199  and  _202
REMARK   79  A    between atoms: _202  and  _203
REMARK   80  A    between atoms: _206  and  _208
REMARK   81  A    between atoms: _208  and  _209
REMARK   82  A    between atoms: _208  and  _211
REMARK   83  A    between atoms: _211  and  _212
REMARK   84  A    between atoms: _215  and  _217
REMARK   85  A    between atoms: _217  and  _218
REMARK   86  A    between atoms: _217  and  _220
REMARK   87  A    between atoms: _220  and  _221
REMARK   88  A    between atoms: _226  and  _228
REMARK   89  A    between atoms: _228  and  _229
REMARK   90  A    between atoms: _228  and  _231
REMARK   91  A    between atoms: _231  and  _232
REMARK   92  A    between atoms: _235  and  _237
REMARK   93  A    between atoms: _237  and  _238
REMARK   94  A    between atoms: _237  and  _240
REMARK   95  A    between atoms: _240  and  _241
REMARK   96  A    between atoms: _246  and  _248
REMARK   97  A    between atoms: _248  and  _249
REMARK   98  A    between atoms: _248  and  _251
REMARK   99  A    between atoms: _251  and  _252
REMARK  100  A    between atoms: _257  and  _259
REMARK  101  A    between atoms: _259  and  _260
REMARK  102  A    between atoms: _259  and  _262
REMARK  103  A    between atoms: _262  and  _263
REMARK  104  A    between atoms: _266  and  _268
REMARK  105  A    between atoms: _268  and  _269
REMARK  106  A    between atoms: _268  and  _271
REMARK  107  A    between atoms: _274  and  _276
REMARK  108  A    between atoms: _276  and  _277
REMARK  109  A    between atoms: _276  and  _279
REMARK  110  A    between atoms: _279  and  _280
REMARK  111  A    between atoms: _284  and  _285
REMARK  112  A    between atoms: _290  and  _292
REMARK  113  A    between atoms: _292  and  _293
REMARK  114  A    between atoms: _292  and  _295
REMARK  115  A    between atoms: _295  and  _296
REMARK  116  A    between atoms: _296  and  _297
REMARK  117  A    between atoms: _300  and  _302
REMARK  118  A    between atoms: _302  and  _303
REMARK  119  A    between atoms: _306  and  _308
REMARK  120  A    between atoms: _308  and  _309
REMARK  121  A    between atoms: _308  and  _311
REMARK  122  A    between atoms: _311  and  _312
REMARK  123  A    between atoms: _315  and  _317
REMARK  124  A    between atoms: _317  and  _318
REMARK  125  A    between atoms: _317  and  _320
REMARK  126  A    between atoms: _320  and  _321
REMARK  127  A    between atoms: _321  and  _322
REMARK  128  A    between atoms: _325  and  _327
REMARK  129  A    between atoms: _327  and  _328
REMARK  130  A    between atoms: _327  and  _330
REMARK  131  A    between atoms: _330  and  _331
REMARK  132  A    between atoms: _336  and  _338
REMARK  133  A    between atoms: _338  and  _339
REMARK  134  A    between atoms: _341  and  _343
REMARK  135  A    between atoms: _343  and  _344
REMARK  136  A    between atoms: _343  and  _346
REMARK  137  A    between atoms: _349  and  _351
REMARK  138  A    between atoms: _351  and  _352
REMARK  139  A    between atoms: _355  and  _357
REMARK  140  A    between atoms: _357  and  _358
REMARK  141  A    between atoms: _357  and  _360
REMARK  142  A    between atoms: _360  and  _361
REMARK  143  A    between atoms: _366  and  _368
REMARK  144  A    between atoms: _368  and  _369
REMARK  145  A    between atoms: _368  and  _371
REMARK  146  A    between atoms: _371  and  _372
REMARK  147  A    between atoms: _372  and  _373
REMARK  148  A    between atoms: _373  and  _374
REMARK  149  A    between atoms: _374  and  _375
REMARK  150  A    between atoms: _379  and  _381
REMARK  151  A    between atoms: _381  and  _382
REMARK  152  A    between atoms: _381  and  _384
REMARK  153  A    between atoms: _384  and  _385
REMARK  154  A    between atoms: _388  and  _390
REMARK  155  A    between atoms: _390  and  _391
REMARK  156  A    between atoms: _390  and  _393
REMARK  157  A    between atoms: _393  and  _394
REMARK  158  A    between atoms: _399  and  _401
REMARK  159  A    between atoms: _401  and  _402
REMARK  160  A    between atoms: _404  and  _406
REMARK  161  A    between atoms: _406  and  _407
REMARK  162  A    between atoms: _406  and  _409
REMARK  163  A    between atoms: _409  and  _410
REMARK  164  A    between atoms: _410  and  _411
REMARK  165  A    between atoms: _411  and  _412
REMARK  166  A    between atoms: _412  and  _413
REMARK  167  A    between atoms: _417  and  _419
REMARK  168  A    between atoms: _419  and  _420
REMARK  169  A    between atoms: _419  and  _422
REMARK  170  A    between atoms: _422  and  _423
REMARK  171  A    between atoms: _423  and  _424
REMARK  172  A    between atoms: _424  and  _425
REMARK  173  A    between atoms: _434  and  _436
REMARK  174  A    between atoms: _436  and  _437
REMARK  175  A    between atoms: _436  and  _439
REMARK  176  A    between atoms: _439  and  _440
REMARK  177  A    between atoms: _445  and  _447
REMARK  178  A    between atoms: _447  and  _448
REMARK  179  A    between atoms: _447  and  _450
REMARK  180  A    between atoms: _450  and  _451
REMARK  181  A    between atoms: _456  and  _457
REMARK  182  A    between atoms: _459  and  _461
REMARK  183  A    between atoms: _461  and  _462
REMARK  184  A    between atoms: _461  and  _464
REMARK  185  A    between atoms: _464  and  _465
REMARK  186  A    between atoms: _465  and  _466
REMARK  187  A    between atoms: _466  and  _467
REMARK  188  A    between atoms: _467  and  _468
REMARK  189  A    between atoms: _472  and  _474
REMARK  190  A    between atoms: _474  and  _475
REMARK  191  A    between atoms: _474  and  _477
REMARK  192  A    between atoms: _477  and  _478
REMARK  193  A    between atoms: _483  and  _484
REMARK  194  A    between atoms: _486  and  _488
REMARK  195  A    between atoms: _488  and  _489
REMARK  196  A    between atoms: _488  and  _491
REMARK  197  A    between atoms: _491  and  _492
REMARK  198  A    between atoms: _494  and  _496
REMARK  199  A    between atoms: _496  and  _497
REMARK  200  A    between atoms: _496  and  _499
REMARK  201  A    between atoms: _499  and  _500
REMARK  202  A    between atoms: _503  and  _505
REMARK  203  A    between atoms: _505  and  _506
REMARK  204  A    between atoms: _505  and  _508
REMARK  205  A    between atoms: _508  and  _509
REMARK  206  A    between atoms: _509  and  _510
REMARK  207  A    between atoms: _513  and  _515
REMARK  208  A    between atoms: _515  and  _516
REMARK  209  A    between atoms: _519  and  _521
REMARK  210  A    between atoms: _521  and  _522
REMARK  211  A    between atoms: _521  and  _524
REMARK  212  A    between atoms: _524  and  _525
REMARK  213  A    between atoms: _527  and  _529
REMARK  214  A    between atoms: _529  and  _530
REMARK  215  A    between atoms: _532  and  _534
REMARK  216  A    between atoms: _534  and  _535
REMARK  217  A    between atoms: _534  and  _537
REMARK  218  A    between atoms: _537  and  _538
REMARK  219  A    between atoms: _541  and  _543
REMARK  220  A    between atoms: _543  and  _544
REMARK  221  A    between atoms: _546  and  _548
REMARK  222  A    between atoms: _548  and  _549
REMARK  223  A    between atoms: _548  and  _551
REMARK  224  A    between atoms: _551  and  _552
REMARK  225  A    between atoms: _557  and  _559
REMARK  226  A    between atoms: _559  and  _560
REMARK  227  A    between atoms: _559  and  _562
REMARK  228  A    between atoms: _562  and  _563
REMARK  229  A    between atoms: _563  and  _564
REMARK  230  A    between atoms: _571  and  _572
REMARK  231  A    between atoms: _572  and  _588
REMARK  232  A    between atoms: _573  and  _575
REMARK  233  A    between atoms: _575  and  _576
REMARK  234  A    between atoms: _576  and  _577
REMARK  235  A    between atoms: _581  and  _583
REMARK  236  A    between atoms: _583  and  _584
REMARK  237  A    between atoms: _583  and  _591
REMARK  238  A    between atoms: _584  and  _585
REMARK  239  A    between atoms: _585  and  _586
REMARK  240  A    between atoms: _586  and  _587
REMARK  241  A    between atoms: _587  and  _588
REMARK  242  A    between atoms: _593  and  _595
REMARK  243  A    between atoms: _595  and  _596
REMARK  244  A    between atoms: _595  and  _598
REMARK  245  A    between atoms: _598  and  _599
REMARK  246  A    between atoms: _602  and  _604
REMARK  247  A    between atoms: _604  and  _605
REMARK  248  A    between atoms: _607  and  _609
REMARK  249  A    between atoms: _609  and  _610
REMARK  250  A    between atoms: _613  and  _615
REMARK  251  A    between atoms: _615  and  _616
REMARK  252  A    between atoms: _615  and  _618
REMARK  253  A    between atoms: _618  and  _619
REMARK  254  A    between atoms: _619  and  _620
REMARK  255  A    between atoms: _620  and  _621
REMARK  256  A    between atoms: _630  and  _632
REMARK  257  A    between atoms: _632  and  _633
REMARK  258  A    between atoms: _632  and  _635
REMARK  259  A    between atoms: _635  and  _636
REMARK  260  A    between atoms: _641  and  _642
REMARK                            x       y       z     vdW  Elec       q    Type
REMARK                         _______ _______ _______ _____ _____    ______ ____
ROOT
ATOM      1  O   HOH     1      31.265  24.015  33.474  0.00  0.00    +0.000 OA
ENDROOT
TORSDOF 0
REMARK  Name = ../refined-set-2016/3g2l/3g2l_pocket.pdb
REMARK  260 active torsions:
REMARK  status: ('A' for Active; 'I' for Inactive)
REMARK    1  A    between atoms: _1  and  _3
REMARK    2  A    between atoms: _3  and  _4
REMARK    3  A    between atoms: _3  and  _6
REMARK    4  A    between atoms: _6  and  _7
REMARK    5  A    between atoms: _12  and  _13
REMARK    6  A    between atoms: _15  and  _17
REMARK    7  A    between atoms: _17  and  _18
REMARK    8  A    between atoms: _17  and  _20
REMARK    9  A    between atoms: _20  and  _21
REMARK   10  A    between atoms: _21  and  _22
REMARK   11  A    between atoms: _25  and  _27
REMARK   12  A    between atoms: _27  and  _28
REMARK   13  A    between atoms: _27  and  _30
REMARK   14  A    between atoms: _30  and  _31
REMARK   15  A    between atoms: _36  and  _38
REMARK   16  A    between atoms: _38  and  _39
REMARK   17  A    between atoms: _41  and  _43
REMARK   18  A    between atoms: _43  and  _44
REMARK   19  A    between atoms: _46  and  _48
REMARK   20  A    between atoms: _48  and  _49
REMARK   21  A    between atoms: _48  and  _51
REMARK   22  A    between atoms: _51  and  _52
REMARK   23  A    between atoms: _55  and  _57
REMARK   24  A    between atoms: _57  and  _58
REMARK   25  A    between atoms: _60  and  _62
REMARK   26  A    between atoms: _62  and  _63
REMARK   27  A    between atoms: _62  and  _65
REMARK   28  A    between atoms: _65  and  _66
REMARK   29  A    between atoms: _66  and  _67
REMARK   30  A    between atoms: _67  and  _68
REMARK   31  A    between atoms: _77  and  _79
REMARK   32  A    between atoms: _79  and  _80
REMARK   33  A    between atoms: _79  and  _82
REMARK   34  A    between atoms: _82  and  _83
REMARK   35  A    between atoms: _86  and  _88
REMARK   36  A    between atoms: _88  and  _89
REMARK   37  A    between atoms: _92  and  _94
REMARK   38  A    between atoms: _94  and  _95
REMARK   39  A    between atoms: _94  and  _97
REMARK   40  A    between atoms: _97  and  _98
REMARK   41  A    between atoms: _104  and  _106
REMARK   42  A    between atoms: _106  and  _107
REMARK   43  A    between atoms: _106  and  _109
REMARK   44  A    between atoms: _109  and  _110
REMARK   45  A    between atoms: _115  and  _117
REMARK   46  A    between atoms: _117  and  _118
REMARK   47  A    between atoms: _117  and  _120
REMARK   48  A    between atoms: _120  and  _121
REMARK   49  A    between atoms: _124  and  _126
REMARK   50  A    between atoms: _126  and  _127
REMARK   51  A    between atoms: _126  and  _129
REMARK   52  A    between atoms: _129  and  _130
REMARK   53  A    between atoms: _135  and  _137
REMARK   54  A    between atoms: _137  and  _138
REMARK   55  A    between atoms: _137  and  _140
REMARK   56  A    between atoms: _140  and  _141
REMARK   57  A    between atoms: _147  and  _149
REMARK   58  A    between atoms: _149  and  _150
REMARK   59  A    between atoms: _149  and  _152
REMARK   60  A    between atoms: _152  and  _153
REMARK   61  A    between atoms: _159  and  _161
REMARK   62  A    between atoms: _161  and  _162
REMARK   63  A    between atoms: _161  and  _164
REMARK   64  A    between atoms: _164  and  _165
REMARK   65  A    between atoms: _165  and  _166
REMARK   66  A    between atoms: _169  and  _171
REMARK   67  A    between atoms: _171  and  _172
REMARK   68  A    between atoms: _171  and  _174
REMARK   69  A    between atoms: _174  and  _175
REMARK   70  A    between atoms: _175  and  _176
REMARK   71  A    between atoms: _176  and  _177
REMARK   72  A    between atoms: _186  and  _188
REMARK   73  A    between atoms: _188  and  _189
REMARK   74  A    between atoms: _188  and  _191
REMARK   75  A    between atoms: _191  and  _192
REMARK   76  A    between atoms: _197  and  _199
REMARK   77  A    between atoms: _199  and  _200
REMARK   78  A    between atoms: _199  and  _202
REMARK   79  A    between atoms: _202  and  _203
REMARK   80  A    between atoms: _206  and  _208
REMARK   81  A    between atoms: _208  and  _209
REMARK   82  A    between atoms: _208  and  _211
REMARK   83  A    between atoms: _211  and  _212
REMARK   84  A    between atoms: _215  and  _217
REMARK   85  A    between atoms: _217  and  _218
REMARK   86  A    between atoms: _217  and  _220
REMARK   87  A    between atoms: _220  and  _221
REMARK   88  A    between atoms: _226  and  _228
REMARK   89  A    between atoms: _228  and  _229
REMARK   90  A    between atoms: _228  and  _231
REMARK   91  A    between atoms: _231  and  _232
REMARK   92  A    between atoms: _235  and  _237
REMARK   93  A    between atoms: _237  and  _238
REMARK   94  A    between atoms: _237  and  _240
REMARK   95  A    between atoms: _240  and  _241
REMARK   96  A    between atoms: _246  and  _248
REMARK   97  A    between atoms: _248  and  _249
REMARK   98  A    between atoms: _248  and  _251
REMARK   99  A    between atoms: _251  and  _252
REMARK  100  A    between atoms: _257  and  _259
REMARK  101  A    between atoms: _259  and  _260
REMARK  102  A    between atoms: _259  and  _262
REMARK  103  A    between atoms: _262  and  _263
REMARK  104  A    between atoms: _266  and  _268
REMARK  105  A    between atoms: _268  and  _269
REMARK  106  A    between atoms: _268  and  _271
REMARK  107  A    between atoms: _274  and  _276
REMARK  108  A    between atoms: _276  and  _277
REMARK  109  A    between atoms: _276  and  _279
REMARK  110  A    between atoms: _279  and  _280
REMARK  111  A    between atoms: _284  and  _285
REMARK  112  A    between atoms: _290  and  _292
REMARK  113  A    between atoms: _292  and  _293
REMARK  114  A    between atoms: _292  and  _295
REMARK  115  A    between atoms: _295  and  _296
REMARK  116  A    between atoms: _296  and  _297
REMARK  117  A    between atoms: _300  and  _302
REMARK  118  A    between atoms: _302  and  _303
REMARK  119  A    between atoms: _306  and  _308
REMARK  120  A    between atoms: _308  and  _309
REMARK  121  A    between atoms: _308  and  _311
REMARK  122  A    between atoms: _311  and  _312
REMARK  123  A    between atoms: _315  and  _317
REMARK  124  A    between atoms: _317  and  _318
REMARK  125  A    between atoms: _317  and  _320
REMARK  126  A    between atoms: _320  and  _321
REMARK  127  A    between atoms: _321  and  _322
REMARK  128  A    between atoms: _325  and  _327
REMARK  129  A    between atoms: _327  and  _328
REMARK  130  A    between atoms: _327  and  _330
REMARK  131  A    between atoms: _330  and  _331
REMARK  132  A    between atoms: _336  and  _338
REMARK  133  A    between atoms: _338  and  _339
REMARK  134  A    between atoms: _341  and  _343
REMARK  135  A    between atoms: _343  and  _344
REMARK  136  A    between atoms: _343  and  _346
REMARK  137  A    between atoms: _349  and  _351
REMARK  138  A    between atoms: _351  and  _352
REMARK  139  A    between atoms: _355  and  _357
REMARK  140  A    between atoms: _357  and  _358
REMARK  141  A    between atoms: _357  and  _360
REMARK  142  A    between atoms: _360  and  _361
REMARK  143  A    between atoms: _366  and  _368
REMARK  144  A    between atoms: _368  and  _369
REMARK  145  A    between atoms: _368  and  _371
REMARK  146  A    between atoms: _371  and  _372
REMARK  147  A    between atoms: _372  and  _373
REMARK  148  A    between atoms: _373  and  _374
REMARK  149  A    between atoms: _374  and  _375
REMARK  150  A    between atoms: _379  and  _381
REMARK  151  A    between atoms: _381  and  _382
REMARK  152  A    between atoms: _381  and  _384
REMARK  153  A    between atoms: _384  and  _385
REMARK  154  A    between atoms: _388  and  _390
REMARK  155  A    between atoms: _390  and  _391
REMARK  156  A    between atoms: _390  and  _393
REMARK  157  A    between atoms: _393  and  _394
REMARK  158  A    between atoms: _399  and  _401
REMARK  159  A    between atoms: _401  and  _402
REMARK  160  A    between atoms: _404  and  _406
REMARK  161  A    between atoms: _406  and  _407
REMARK  162  A    between atoms: _406  and  _409
REMARK  163  A    between atoms: _409  and  _410
REMARK  164  A    between atoms: _410  and  _411
REMARK  165  A    between atoms: _411  and  _412
REMARK  166  A    between atoms: _412  and  _413
REMARK  167  A    between atoms: _417  and  _419
REMARK  168  A    between atoms: _419  and  _420
REMARK  169  A    between atoms: _419  and  _422
REMARK  170  A    between atoms: _422  and  _423
REMARK  171  A    between atoms: _423  and  _424
REMARK  172  A    between atoms: _424  and  _425
REMARK  173  A    between atoms: _434  and  _436
REMARK  174  A    between atoms: _436  and  _437
REMARK  175  A    between atoms: _436  and  _439
REMARK  176  A    between atoms: _439  and  _440
REMARK  177  A    between atoms: _445  and  _447
REMARK  178  A    between atoms: _447  and  _448
REMARK  179  A    between atoms: _447  and  _450
REMARK  180  A    between atoms: _450  and  _451
REMARK  181  A    between atoms: _456  and  _457
REMARK  182  A    between atoms: _459  and  _461
REMARK  183  A    between atoms: _461  and  _462
REMARK  184  A    between atoms: _461  and  _464
REMARK  185  A    between atoms: _464  and  _465
REMARK  186  A    between atoms: _465  and  _466
REMARK  187  A    between atoms: _466  and  _467
REMARK  188  A    between atoms: _467  and  _468
REMARK  189  A    between atoms: _472  and  _474
REMARK  190  A    between atoms: _474  and  _475
REMARK  191  A    between atoms: _474  and  _477
REMARK  192  A    between atoms: _477  and  _478
REMARK  193  A    between atoms: _483  and  _484
REMARK  194  A    between atoms: _486  and  _488
REMARK  195  A    between atoms: _488  and  _489
REMARK  196  A    between atoms: _488  and  _491
REMARK  197  A    between atoms: _491  and  _492
REMARK  198  A    between atoms: _494  and  _496
REMARK  199  A    between atoms: _496  and  _497
REMARK  200  A    between atoms: _496  and  _499
REMARK  201  A    between atoms: _499  and  _500
REMARK  202  A    between atoms: _503  and  _505
REMARK  203  A    between atoms: _505  and  _506
REMARK  204  A    between atoms: _505  and  _508
REMARK  205  A    between atoms: _508  and  _509
REMARK  206  A    between atoms: _509  and  _510
REMARK  207  A    between atoms: _513  and  _515
REMARK  208  A    between atoms: _515  and  _516
REMARK  209  A    between atoms: _519  and  _521
REMARK  210  A    between atoms: _521  and  _522
REMARK  211  A    between atoms: _521  and  _524
REMARK  212  A    between atoms: _524  and  _525
REMARK  213  A    between atoms: _527  and  _529
REMARK  214  A    between atoms: _529  and  _530
REMARK  215  A    between atoms: _532  and  _534
REMARK  216  A    between atoms: _534  and  _535
REMARK  217  A    between atoms: _534  and  _537
REMARK  218  A    between atoms: _537  and  _538
REMARK  219  A    between atoms: _541  and  _543
REMARK  220  A    between atoms: _543  and  _544
REMARK  221  A    between atoms: _546  and  _548
REMARK  222  A    between atoms: _548  and  _549
REMARK  223  A    between atoms: _548  and  _551
REMARK  224  A    between atoms: _551  and  _552
REMARK  225  A    between atoms: _557  and  _559
REMARK  226  A    between atoms: _559  and  _560
REMARK  227  A    between atoms: _559  and  _562
REMARK  228  A    between atoms: _562  and  _563
REMARK  229  A    between atoms: _563  and  _564
REMARK  230  A    between atoms: _571  and  _572
REMARK  231  A    between atoms: _572  and  _588
REMARK  232  A    between atoms: _573  and  _575
REMARK  233  A    between atoms: _575  and  _576
REMARK  234  A    between atoms: _576  and  _577
REMARK  235  A    between atoms: _581  and  _583
REMARK  236  A    between atoms: _583  and  _584
REMARK  237  A    between atoms: _583  and  _591
REMARK  238  A    between atoms: _584  and  _585
REMARK  239  A    between atoms: _585  and  _586
REMARK  240  A    between atoms: _586  and  _587
REMARK  241  A    between atoms: _587  and  _588
REMARK  242  A    between atoms: _593  and  _595
REMARK  243  A    between atoms: _595  and  _596
REMARK  244  A    between atoms: _595  and  _598
REMARK  245  A    between atoms: _598  and  _599
REMARK  246  A    between atoms: _602  and  _604
REMARK  247  A    between atoms: _604  and  _605
REMARK  248  A    between atoms: _607  and  _609
REMARK  249  A    between atoms: _609  and  _610
REMARK  250  A    between atoms: _613  and  _615
REMARK  251  A    between atoms: _615  and  _616
REMARK  252  A    between atoms: _615  and  _618
REMARK  253  A    between atoms: _618  and  _619
REMARK  254  A    between atoms: _619  and  _620
REMARK  255  A    between atoms: _620  and  _621
REMARK  256  A    between atoms: _630  and  _632
REMARK  257  A    between atoms: _632  and  _633
REMARK  258  A    between atoms: _632  and  _635
REMARK  259  A    between atoms: _635  and  _636
REMARK  260  A    between atoms: _641  and  _642
REMARK                            x       y       z     vdW  Elec       q    Type
REMARK                         _______ _______ _______ _____ _____    ______ ____
ROOT
ATOM      1  O   HOH     1      30.319  25.898  29.102  0.00  0.00    +0.000 OA
ENDROOT
TORSDOF 0
REMARK  Name = ../refined-set-2016/3g2l/3g2l_pocket.pdb
REMARK  260 active torsions:
REMARK  status: ('A' for Active; 'I' for Inactive)
REMARK    1  A    between atoms: _1  and  _3
REMARK    2  A    between atoms: _3  and  _4
REMARK    3  A    between atoms: _3  and  _6
REMARK    4  A    between atoms: _6  and  _7
REMARK    5  A    between atoms: _12  and  _13
REMARK    6  A    between atoms: _15  and  _17
REMARK    7  A    between atoms: _17  and  _18
REMARK    8  A    between atoms: _17  and  _20
REMARK    9  A    between atoms: _20  and  _21
REMARK   10  A    between atoms: _21  and  _22
REMARK   11  A    between atoms: _25  and  _27
REMARK   12  A    between atoms: _27  and  _28
REMARK   13  A    between atoms: _27  and  _30
REMARK   14  A    between atoms: _30  and  _31
REMARK   15  A    between atoms: _36  and  _38
REMARK   16  A    between atoms: _38  and  _39
REMARK   17  A    between atoms: _41  and  _43
REMARK   18  A    between atoms: _43  and  _44
REMARK   19  A    between atoms: _46  and  _48
REMARK   20  A    between atoms: _48  and  _49
REMARK   21  A    between atoms: _48  and  _51
REMARK   22  A    between atoms: _51  and  _52
REMARK   23  A    between atoms: _55  and  _57
REMARK   24  A    between atoms: _57  and  _58
REMARK   25  A    between atoms: _60  and  _62
REMARK   26  A    between atoms: _62  and  _63
REMARK   27  A    between atoms: _62  and  _65
REMARK   28  A    between atoms: _65  and  _66
REMARK   29  A    between atoms: _66  and  _67
REMARK   30  A    between atoms: _67  and  _68
REMARK   31  A    between atoms: _77  and  _79
REMARK   32  A    between atoms: _79  and  _80
REMARK   33  A    between atoms: _79  and  _82
REMARK   34  A    between atoms: _82  and  _83
REMARK   35  A    between atoms: _86  and  _88
REMARK   36  A    between atoms: _88  and  _89
REMARK   37  A    between atoms: _92  and  _94
REMARK   38  A    between atoms: _94  and  _95
REMARK   39  A    between atoms: _94  and  _97
REMARK   40  A    between atoms: _97  and  _98
REMARK   41  A    between atoms: _104  and  _106
REMARK   42  A    between atoms: _106  and  _107
REMARK   43  A    between atoms: _106  and  _109
REMARK   44  A    between atoms: _109  and  _110
REMARK   45  A    between atoms: _115  and  _117
REMARK   46  A    between atoms: _117  and  _118
REMARK   47  A    between atoms: _117  and  _120
REMARK   48  A    between atoms: _120  and  _121
REMARK   49  A    between atoms: _124  and  _126
REMARK   50  A    between atoms: _126  and  _127
REMARK   51  A    between atoms: _126  and  _129
REMARK   52  A    between atoms: _129  and  _130
REMARK   53  A    between atoms: _135  and  _137
REMARK   54  A    between atoms: _137  and  _138
REMARK   55  A    between atoms: _137  and  _140
REMARK   56  A    between atoms: _140  and  _141
REMARK   57  A    between atoms: _147  and  _149
REMARK   58  A    between atoms: _149  and  _150
REMARK   59  A    between atoms: _149  and  _152
REMARK   60  A    between atoms: _152  and  _153
REMARK   61  A    between atoms: _159  and  _161
REMARK   62  A    between atoms: _161  and  _162
REMARK   63  A    between atoms: _161  and  _164
REMARK   64  A    between atoms: _164  and  _165
REMARK   65  A    between atoms: _165  and  _166
REMARK   66  A    between atoms: _169  and  _171
REMARK   67  A    between atoms: _171  and  _172
REMARK   68  A    between atoms: _171  and  _174
REMARK   69  A    between atoms: _174  and  _175
REMARK   70  A    between atoms: _175  and  _176
REMARK   71  A    between atoms: _176  and  _177
REMARK   72  A    between atoms: _186  and  _188
REMARK   73  A    between atoms: _188  and  _189
REMARK   74  A    between atoms: _188  and  _191
REMARK   75  A    between atoms: _191  and  _192
REMARK   76  A    between atoms: _197  and  _199
REMARK   77  A    between atoms: _199  and  _200
REMARK   78  A    between atoms: _199  and  _202
REMARK   79  A    between atoms: _202  and  _203
REMARK   80  A    between atoms: _206  and  _208
REMARK   81  A    between atoms: _208  and  _209
REMARK   82  A    between atoms: _208  and  _211
REMARK   83  A    between atoms: _211  and  _212
REMARK   84  A    between atoms: _215  and  _217
REMARK   85  A    between atoms: _217  and  _218
REMARK   86  A    between atoms: _217  and  _220
REMARK   87  A    between atoms: _220  and  _221
REMARK   88  A    between atoms: _226  and  _228
REMARK   89  A    between atoms: _228  and  _229
REMARK   90  A    between atoms: _228  and  _231
REMARK   91  A    between atoms: _231  and  _232
REMARK   92  A    between atoms: _235  and  _237
REMARK   93  A    between atoms: _237  and  _238
REMARK   94  A    between atoms: _237  and  _240
REMARK   95  A    between atoms: _240  and  _241
REMARK   96  A    between atoms: _246  and  _248
REMARK   97  A    between atoms: _248  and  _249
REMARK   98  A    between atoms: _248  and  _251
REMARK   99  A    between atoms: _251  and  _252
REMARK  100  A    between atoms: _257  and  _259
REMARK  101  A    between atoms: _259  and  _260
REMARK  102  A    between atoms: _259  and  _262
REMARK  103  A    between atoms: _262  and  _263
REMARK  104  A    between atoms: _266  and  _268
REMARK  105  A    between atoms: _268  and  _269
REMARK  106  A    between atoms: _268  and  _271
REMARK  107  A    between atoms: _274  and  _276
REMARK  108  A    between atoms: _276  and  _277
REMARK  109  A    between atoms: _276  and  _279
REMARK  110  A    between atoms: _279  and  _280
REMARK  111  A    between atoms: _284  and  _285
REMARK  112  A    between atoms: _290  and  _292
REMARK  113  A    between atoms: _292  and  _293
REMARK  114  A    between atoms: _292  and  _295
REMARK  115  A    between atoms: _295  and  _296
REMARK  116  A    between atoms: _296  and  _297
REMARK  117  A    between atoms: _300  and  _302
REMARK  118  A    between atoms: _302  and  _303
REMARK  119  A    between atoms: _306  and  _308
REMARK  120  A    between atoms: _308  and  _309
REMARK  121  A    between atoms: _308  and  _311
REMARK  122  A    between atoms: _311  and  _312
REMARK  123  A    between atoms: _315  and  _317
REMARK  124  A    between atoms: _317  and  _318
REMARK  125  A    between atoms: _317  and  _320
REMARK  126  A    between atoms: _320  and  _321
REMARK  127  A    between atoms: _321  and  _322
REMARK  128  A    between atoms: _325  and  _327
REMARK  129  A    between atoms: _327  and  _328
REMARK  130  A    between atoms: _327  and  _330
REMARK  131  A    between atoms: _330  and  _331
REMARK  132  A    between atoms: _336  and  _338
REMARK  133  A    between atoms: _338  and  _339
REMARK  134  A    between atoms: _341  and  _343
REMARK  135  A    between atoms: _343  and  _344
REMARK  136  A    between atoms: _343  and  _346
REMARK  137  A    between atoms: _349  and  _351
REMARK  138  A    between atoms: _351  and  _352
REMARK  139  A    between atoms: _355  and  _357
REMARK  140  A    between atoms: _357  and  _358
REMARK  141  A    between atoms: _357  and  _360
REMARK  142  A    between atoms: _360  and  _361
REMARK  143  A    between atoms: _366  and  _368
REMARK  144  A    between atoms: _368  and  _369
REMARK  145  A    between atoms: _368  and  _371
REMARK  146  A    between atoms: _371  and  _372
REMARK  147  A    between atoms: _372  and  _373
REMARK  148  A    between atoms: _373  and  _374
REMARK  149  A    between atoms: _374  and  _375
REMARK  150  A    between atoms: _379  and  _381
REMARK  151  A    between atoms: _381  and  _382
REMARK  152  A    between atoms: _381  and  _384
REMARK  153  A    between atoms: _384  and  _385
REMARK  154  A    between atoms: _388  and  _390
REMARK  155  A    between atoms: _390  and  _391
REMARK  156  A    between atoms: _390  and  _393
REMARK  157  A    between atoms: _393  and  _394
REMARK  158  A    between atoms: _399  and  _401
REMARK  159  A    between atoms: _401  and  _402
REMARK  160  A    between atoms: _404  and  _406
REMARK  161  A    between atoms: _406  and  _407
REMARK  162  A    between atoms: _406  and  _409
REMARK  163  A    between atoms: _409  and  _410
REMARK  164  A    between atoms: _410  and  _411
REMARK  165  A    between atoms: _411  and  _412
REMARK  166  A    between atoms: _412  and  _413
REMARK  167  A    between atoms: _417  and  _419
REMARK  168  A    between atoms: _419  and  _420
REMARK  169  A    between atoms: _419  and  _422
REMARK  170  A    between atoms: _422  and  _423
REMARK  171  A    between atoms: _423  and  _424
REMARK  172  A    between atoms: _424  and  _425
REMARK  173  A    between atoms: _434  and  _436
REMARK  174  A    between atoms: _436  and  _437
REMARK  175  A    between atoms: _436  and  _439
REMARK  176  A    between atoms: _439  and  _440
REMARK  177  A    between atoms: _445  and  _447
REMARK  178  A    between atoms: _447  and  _448
REMARK  179  A    between atoms: _447  and  _450
REMARK  180  A    between atoms: _450  and  _451
REMARK  181  A    between atoms: _456  and  _457
REMARK  182  A    between atoms: _459  and  _461
REMARK  183  A    between atoms: _461  and  _462
REMARK  184  A    between atoms: _461  and  _464
REMARK  185  A    between atoms: _464  and  _465
REMARK  186  A    between atoms: _465  and  _466
REMARK  187  A    between atoms: _466  and  _467
REMARK  188  A    between atoms: _467  and  _468
REMARK  189  A    between atoms: _472  and  _474
REMARK  190  A    between atoms: _474  and  _475
REMARK  191  A    between atoms: _474  and  _477
REMARK  192  A    between atoms: _477  and  _478
REMARK  193  A    between atoms: _483  and  _484
REMARK  194  A    between atoms: _486  and  _488
REMARK  195  A    between atoms: _488  and  _489
REMARK  196  A    between atoms: _488  and  _491
REMARK  197  A    between atoms: _491  and  _492
REMARK  198  A    between atoms: _494  and  _496
REMARK  199  A    between atoms: _496  and  _497
REMARK  200  A    between atoms: _496  and  _499
REMARK  201  A    between atoms: _499  and  _500
REMARK  202  A    between atoms: _503  and  _505
REMARK  203  A    between atoms: _505  and  _506
REMARK  204  A    between atoms: _505  and  _508
REMARK  205  A    between atoms: _508  and  _509
REMARK  206  A    between atoms: _509  and  _510
REMARK  207  A    between atoms: _513  and  _515
REMARK  208  A    between atoms: _515  and  _516
REMARK  209  A    between atoms: _519  and  _521
REMARK  210  A    between atoms: _521  and  _522
REMARK  211  A    between atoms: _521  and  _524
REMARK  212  A    between atoms: _524  and  _525
REMARK  213  A    between atoms: _527  and  _529
REMARK  214  A    between atoms: _529  and  _530
REMARK  215  A    between atoms: _532  and  _534
REMARK  216  A    between atoms: _534  and  _535
REMARK  217  A    between atoms: _534  and  _537
REMARK  218  A    between atoms: _537  and  _538
REMARK  219  A    between atoms: _541  and  _543
REMARK  220  A    between atoms: _543  and  _544
REMARK  221  A    between atoms: _546  and  _548
REMARK  222  A    between atoms: _548  and  _549
REMARK  223  A    between atoms: _548  and  _551
REMARK  224  A    between atoms: _551  and  _552
REMARK  225  A    between atoms: _557  and  _559
REMARK  226  A    between atoms: _559  and  _560
REMARK  227  A    between atoms: _559  and  _562
REMARK  228  A    between atoms: _562  and  _563
REMARK  229  A    between atoms: _563  and  _564
REMARK  230  A    between atoms: _571  and  _572
REMARK  231  A    between atoms: _572  and  _588
REMARK  232  A    between atoms: _573  and  _575
REMARK  233  A    between atoms: _575  and  _576
REMARK  234  A    between atoms: _576  and  _577
REMARK  235  A    between atoms: _581  and  _583
REMARK  236  A    between atoms: _583  and  _584
REMARK  237  A    between atoms: _583  and  _591
REMARK  238  A    between atoms: _584  and  _585
REMARK  239  A    between atoms: _585  and  _586
REMARK  240  A    between atoms: _586  and  _587
REMARK  241  A    between atoms: _587  and  _588
REMARK  242  A    between atoms: _593  and  _595
REMARK  243  A    between atoms: _595  and  _596
REMARK  244  A    between atoms: _595  and  _598
REMARK  245  A    between atoms: _598  and  _599
REMARK  246  A    between atoms: _602  and  _604
REMARK  247  A    between atoms: _604  and  _605
REMARK  248  A    between atoms: _607  and  _609
REMARK  249  A    between atoms: _609  and  _610
REMARK  250  A    between atoms: _613  and  _615
REMARK  251  A    between atoms: _615  and  _616
REMARK  252  A    between atoms: _615  and  _618
REMARK  253  A    between atoms: _618  and  _619
REMARK  254  A    between atoms: _619  and  _620
REMARK  255  A    between atoms: _620  and  _621
REMARK  256  A    between atoms: _630  and  _632
REMARK  257  A    between atoms: _632  and  _633
REMARK  258  A    between atoms: _632  and  _635
REMARK  259  A    between atoms: _635  and  _636
REMARK  260  A    between atoms: _641  and  _642
REMARK                            x       y       z     vdW  Elec       q    Type
REMARK                         _______ _______ _______ _____ _____    ______ ____
ROOT
ATOM      1  O   HOH     1      28.227  27.244  27.564  0.00  0.00    +0.000 OA
ENDROOT
TORSDOF 0
REMARK  Name = ../refined-set-2016/3g2l/3g2l_pocket.pdb
REMARK  260 active torsions:
REMARK  status: ('A' for Active; 'I' for Inactive)
REMARK    1  A    between atoms: _1  and  _3
REMARK    2  A    between atoms: _3  and  _4
REMARK    3  A    between atoms: _3  and  _6
REMARK    4  A    between atoms: _6  and  _7
REMARK    5  A    between atoms: _12  and  _13
REMARK    6  A    between atoms: _15  and  _17
REMARK    7  A    between atoms: _17  and  _18
REMARK    8  A    between atoms: _17  and  _20
REMARK    9  A    between atoms: _20  and  _21
REMARK   10  A    between atoms: _21  and  _22
REMARK   11  A    between atoms: _25  and  _27
REMARK   12  A    between atoms: _27  and  _28
REMARK   13  A    between atoms: _27  and  _30
REMARK   14  A    between atoms: _30  and  _31
REMARK   15  A    between atoms: _36  and  _38
REMARK   16  A    between atoms: _38  and  _39
REMARK   17  A    between atoms: _41  and  _43
REMARK   18  A    between atoms: _43  and  _44
REMARK   19  A    between atoms: _46  and  _48
REMARK   20  A    between atoms: _48  and  _49
REMARK   21  A    between atoms: _48  and  _51
REMARK   22  A    between atoms: _51  and  _52
REMARK   23  A    between atoms: _55  and  _57
REMARK   24  A    between atoms: _57  and  _58
REMARK   25  A    between atoms: _60  and  _62
REMARK   26  A    between atoms: _62  and  _63
REMARK   27  A    between atoms: _62  and  _65
REMARK   28  A    between atoms: _65  and  _66
REMARK   29  A    between atoms: _66  and  _67
REMARK   30  A    between atoms: _67  and  _68
REMARK   31  A    between atoms: _77  and  _79
REMARK   32  A    between atoms: _79  and  _80
REMARK   33  A    between atoms: _79  and  _82
REMARK   34  A    between atoms: _82  and  _83
REMARK   35  A    between atoms: _86  and  _88
REMARK   36  A    between atoms: _88  and  _89
REMARK   37  A    between atoms: _92  and  _94
REMARK   38  A    between atoms: _94  and  _95
REMARK   39  A    between atoms: _94  and  _97
REMARK   40  A    between atoms: _97  and  _98
REMARK   41  A    between atoms: _104  and  _106
REMARK   42  A    between atoms: _106  and  _107
REMARK   43  A    between atoms: _106  and  _109
REMARK   44  A    between atoms: _109  and  _110
REMARK   45  A    between atoms: _115  and  _117
REMARK   46  A    between atoms: _117  and  _118
REMARK   47  A    between atoms: _117  and  _120
REMARK   48  A    between atoms: _120  and  _121
REMARK   49  A    between atoms: _124  and  _126
REMARK   50  A    between atoms: _126  and  _127
REMARK   51  A    between atoms: _126  and  _129
REMARK   52  A    between atoms: _129  and  _130
REMARK   53  A    between atoms: _135  and  _137
REMARK   54  A    between atoms: _137  and  _138
REMARK   55  A    between atoms: _137  and  _140
REMARK   56  A    between atoms: _140  and  _141
REMARK   57  A    between atoms: _147  and  _149
REMARK   58  A    between atoms: _149  and  _150
REMARK   59  A    between atoms: _149  and  _152
REMARK   60  A    between atoms: _152  and  _153
REMARK   61  A    between atoms: _159  and  _161
REMARK   62  A    between atoms: _161  and  _162
REMARK   63  A    between atoms: _161  and  _164
REMARK   64  A    between atoms: _164  and  _165
REMARK   65  A    between atoms: _165  and  _166
REMARK   66  A    between atoms: _169  and  _171
REMARK   67  A    between atoms: _171  and  _172
REMARK   68  A    between atoms: _171  and  _174
REMARK   69  A    between atoms: _174  and  _175
REMARK   70  A    between atoms: _175  and  _176
REMARK   71  A    between atoms: _176  and  _177
REMARK   72  A    between atoms: _186  and  _188
REMARK   73  A    between atoms: _188  and  _189
REMARK   74  A    between atoms: _188  and  _191
REMARK   75  A    between atoms: _191  and  _192
REMARK   76  A    between atoms: _197  and  _199
REMARK   77  A    between atoms: _199  and  _200
REMARK   78  A    between atoms: _199  and  _202
REMARK   79  A    between atoms: _202  and  _203
REMARK   80  A    between atoms: _206  and  _208
REMARK   81  A    between atoms: _208  and  _209
REMARK   82  A    between atoms: _208  and  _211
REMARK   83  A    between atoms: _211  and  _212
REMARK   84  A    between atoms: _215  and  _217
REMARK   85  A    between atoms: _217  and  _218
REMARK   86  A    between atoms: _217  and  _220
REMARK   87  A    between atoms: _220  and  _221
REMARK   88  A    between atoms: _226  and  _228
REMARK   89  A    between atoms: _228  and  _229
REMARK   90  A    between atoms: _228  and  _231
REMARK   91  A    between atoms: _231  and  _232
REMARK   92  A    between atoms: _235  and  _237
REMARK   93  A    between atoms: _237  and  _238
REMARK   94  A    between atoms: _237  and  _240
REMARK   95  A    between atoms: _240  and  _241
REMARK   96  A    between atoms: _246  and  _248
REMARK   97  A    between atoms: _248  and  _249
REMARK   98  A    between atoms: _248  and  _251
REMARK   99  A    between atoms: _251  and  _252
REMARK  100  A    between atoms: _257  and  _259
REMARK  101  A    between atoms: _259  and  _260
REMARK  102  A    between atoms: _259  and  _262
REMARK  103  A    between atoms: _262  and  _263
REMARK  104  A    between atoms: _266  and  _268
REMARK  105  A    between atoms: _268  and  _269
REMARK  106  A    between atoms: _268  and  _271
REMARK  107  A    between atoms: _274  and  _276
REMARK  108  A    between atoms: _276  and  _277
REMARK  109  A    between atoms: _276  and  _279
REMARK  110  A    between atoms: _279  and  _280
REMARK  111  A    between atoms: _284  and  _285
REMARK  112  A    between atoms: _290  and  _292
REMARK  113  A    between atoms: _292  and  _293
REMARK  114  A    between atoms: _292  and  _295
REMARK  115  A    between atoms: _295  and  _296
REMARK  116  A    between atoms: _296  and  _297
REMARK  117  A    between atoms: _300  and  _302
REMARK  118  A    between atoms: _302  and  _303
REMARK  119  A    between atoms: _306  and  _308
REMARK  120  A    between atoms: _308  and  _309
REMARK  121  A    between atoms: _308  and  _311
REMARK  122  A    between atoms: _311  and  _312
REMARK  123  A    between atoms: _315  and  _317
REMARK  124  A    between atoms: _317  and  _318
REMARK  125  A    between atoms: _317  and  _320
REMARK  126  A    between atoms: _320  and  _321
REMARK  127  A    between atoms: _321  and  _322
REMARK  128  A    between atoms: _325  and  _327
REMARK  129  A    between atoms: _327  and  _328
REMARK  130  A    between atoms: _327  and  _330
REMARK  131  A    between atoms: _330  and  _331
REMARK  132  A    between atoms: _336  and  _338
REMARK  133  A    between atoms: _338  and  _339
REMARK  134  A    between atoms: _341  and  _343
REMARK  135  A    between atoms: _343  and  _344
REMARK  136  A    between atoms: _343  and  _346
REMARK  137  A    between atoms: _349  and  _351
REMARK  138  A    between atoms: _351  and  _352
REMARK  139  A    between atoms: _355  and  _357
REMARK  140  A    between atoms: _357  and  _358
REMARK  141  A    between atoms: _357  and  _360
REMARK  142  A    between atoms: _360  and  _361
REMARK  143  A    between atoms: _366  and  _368
REMARK  144  A    between atoms: _368  and  _369
REMARK  145  A    between atoms: _368  and  _371
REMARK  146  A    between atoms: _371  and  _372
REMARK  147  A    between atoms: _372  and  _373
REMARK  148  A    between atoms: _373  and  _374
REMARK  149  A    between atoms: _374  and  _375
REMARK  150  A    between atoms: _379  and  _381
REMARK  151  A    between atoms: _381  and  _382
REMARK  152  A    between atoms: _381  and  _384
REMARK  153  A    between atoms: _384  and  _385
REMARK  154  A    between atoms: _388  and  _390
REMARK  155  A    between atoms: _390  and  _391
REMARK  156  A    between atoms: _390  and  _393
REMARK  157  A    between atoms: _393  and  _394
REMARK  158  A    between atoms: _399  and  _401
REMARK  159  A    between atoms: _401  and  _402
REMARK  160  A    between atoms: _404  and  _406
REMARK  161  A    between atoms: _406  and  _407
REMARK  162  A    between atoms: _406  and  _409
REMARK  163  A    between atoms: _409  and  _410
REMARK  164  A    between atoms: _410  and  _411
REMARK  165  A    between atoms: _411  and  _412
REMARK  166  A    between atoms: _412  and  _413
REMARK  167  A    between atoms: _417  and  _419
REMARK  168  A    between atoms: _419  and  _420
REMARK  169  A    between atoms: _419  and  _422
REMARK  170  A    between atoms: _422  and  _423
REMARK  171  A    between atoms: _423  and  _424
REMARK  172  A    between atoms: _424  and  _425
REMARK  173  A    between atoms: _434  and  _436
REMARK  174  A    between atoms: _436  and  _437
REMARK  175  A    between atoms: _436  and  _439
REMARK  176  A    between atoms: _439  and  _440
REMARK  177  A    between atoms: _445  and  _447
REMARK  178  A    between atoms: _447  and  _448
REMARK  179  A    between atoms: _447  and  _450
REMARK  180  A    between atoms: _450  and  _451
REMARK  181  A    between atoms: _456  and  _457
REMARK  182  A    between atoms: _459  and  _461
REMARK  183  A    between atoms: _461  and  _462
REMARK  184  A    between atoms: _461  and  _464
REMARK  185  A    between atoms: _464  and  _465
REMARK  186  A    between atoms: _465  and  _466
REMARK  187  A    between atoms: _466  and  _467
REMARK  188  A    between atoms: _467  and  _468
REMARK  189  A    between atoms: _472  and  _474
REMARK  190  A    between atoms: _474  and  _475
REMARK  191  A    between atoms: _474  and  _477
REMARK  192  A    between atoms: _477  and  _478
REMARK  193  A    between atoms: _483  and  _484
REMARK  194  A    between atoms: _486  and  _488
REMARK  195  A    between atoms: _488  and  _489
REMARK  196  A    between atoms: _488  and  _491
REMARK  197  A    between atoms: _491  and  _492
REMARK  198  A    between atoms: _494  and  _496
REMARK  199  A    between atoms: _496  and  _497
REMARK  200  A    between atoms: _496  and  _499
REMARK  201  A    between atoms: _499  and  _500
REMARK  202  A    between atoms: _503  and  _505
REMARK  203  A    between atoms: _505  and  _506
REMARK  204  A    between atoms: _505  and  _508
REMARK  205  A    between atoms: _508  and  _509
REMARK  206  A    between atoms: _509  and  _510
REMARK  207  A    between atoms: _513  and  _515
REMARK  208  A    between atoms: _515  and  _516
REMARK  209  A    between atoms: _519  and  _521
REMARK  210  A    between atoms: _521  and  _522
REMARK  211  A    between atoms: _521  and  _524
REMARK  212  A    between atoms: _524  and  _525
REMARK  213  A    between atoms: _527  and  _529
REMARK  214  A    between atoms: _529  and  _530
REMARK  215  A    between atoms: _532  and  _534
REMARK  216  A    between atoms: _534  and  _535
REMARK  217  A    between atoms: _534  and  _537
REMARK  218  A    between atoms: _537  and  _538
REMARK  219  A    between atoms: _541  and  _543
REMARK  220  A    between atoms: _543  and  _544
REMARK  221  A    between atoms: _546  and  _548
REMARK  222  A    between atoms: _548  and  _549
REMARK  223  A    between atoms: _548  and  _551
REMARK  224  A    between atoms: _551  and  _552
REMARK  225  A    between atoms: _557  and  _559
REMARK  226  A    between atoms: _559  and  _560
REMARK  227  A    between atoms: _559  and  _562
REMARK  228  A    between atoms: _562  and  _563
REMARK  229  A    between atoms: _563  and  _564
REMARK  230  A    between atoms: _571  and  _572
REMARK  231  A    between atoms: _572  and  _588
REMARK  232  A    between atoms: _573  and  _575
REMARK  233  A    between atoms: _575  and  _576
REMARK  234  A    between atoms: _576  and  _577
REMARK  235  A    between atoms: _581  and  _583
REMARK  236  A    between atoms: _583  and  _584
REMARK  237  A    between atoms: _583  and  _591
REMARK  238  A    between atoms: _584  and  _585
REMARK  239  A    between atoms: _585  and  _586
REMARK  240  A    between atoms: _586  and  _587
REMARK  241  A    between atoms: _587  and  _588
REMARK  242  A    between atoms: _593  and  _595
REMARK  243  A    between atoms: _595  and  _596
REMARK  244  A    between atoms: _595  and  _598
REMARK  245  A    between atoms: _598  and  _599
REMARK  246  A    between atoms: _602  and  _604
REMARK  247  A    between atoms: _604  and  _605
REMARK  248  A    between atoms: _607  and  _609
REMARK  249  A    between atoms: _609  and  _610
REMARK  250  A    between atoms: _613  and  _615
REMARK  251  A    between atoms: _615  and  _616
REMARK  252  A    between atoms: _615  and  _618
REMARK  253  A    between atoms: _618  and  _619
REMARK  254  A    between atoms: _619  and  _620
REMARK  255  A    between atoms: _620  and  _621
REMARK  256  A    between atoms: _630  and  _632
REMARK  257  A    between atoms: _632  and  _633
REMARK  258  A    between atoms: _632  and  _635
REMARK  259  A    between atoms: _635  and  _636
REMARK  260  A    between atoms: _641  and  _642
REMARK                            x       y       z     vdW  Elec       q    Type
REMARK                         _______ _______ _______ _____ _____    ______ ____
ROOT
ATOM      1  O   HOH     1      27.042  23.349  21.656  0.00  0.00    +0.000 OA
ENDROOT
TORSDOF 0
REMARK  Name = ../refined-set-2016/3g2l/3g2l_pocket.pdb
REMARK  260 active torsions:
REMARK  status: ('A' for Active; 'I' for Inactive)
REMARK    1  A    between atoms: _1  and  _3
REMARK    2  A    between atoms: _3  and  _4
REMARK    3  A    between atoms: _3  and  _6
REMARK    4  A    between atoms: _6  and  _7
REMARK    5  A    between atoms: _12  and  _13
REMARK    6  A    between atoms: _15  and  _17
REMARK    7  A    between atoms: _17  and  _18
REMARK    8  A    between atoms: _17  and  _20
REMARK    9  A    between atoms: _20  and  _21
REMARK   10  A    between atoms: _21  and  _22
REMARK   11  A    between atoms: _25  and  _27
REMARK   12  A    between atoms: _27  and  _28
REMARK   13  A    between atoms: _27  and  _30
REMARK   14  A    between atoms: _30  and  _31
REMARK   15  A    between atoms: _36  and  _38
REMARK   16  A    between atoms: _38  and  _39
REMARK   17  A    between atoms: _41  and  _43
REMARK   18  A    between atoms: _43  and  _44
REMARK   19  A    between atoms: _46  and  _48
REMARK   20  A    between atoms: _48  and  _49
REMARK   21  A    between atoms: _48  and  _51
REMARK   22  A    between atoms: _51  and  _52
REMARK   23  A    between atoms: _55  and  _57
REMARK   24  A    between atoms: _57  and  _58
REMARK   25  A    between atoms: _60  and  _62
REMARK   26  A    between atoms: _62  and  _63
REMARK   27  A    between atoms: _62  and  _65
REMARK   28  A    between atoms: _65  and  _66
REMARK   29  A    between atoms: _66  and  _67
REMARK   30  A    between atoms: _67  and  _68
REMARK   31  A    between atoms: _77  and  _79
REMARK   32  A    between atoms: _79  and  _80
REMARK   33  A    between atoms: _79  and  _82
REMARK   34  A    between atoms: _82  and  _83
REMARK   35  A    between atoms: _86  and  _88
REMARK   36  A    between atoms: _88  and  _89
REMARK   37  A    between atoms: _92  and  _94
REMARK   38  A    between atoms: _94  and  _95
REMARK   39  A    between atoms: _94  and  _97
REMARK   40  A    between atoms: _97  and  _98
REMARK   41  A    between atoms: _104  and  _106
REMARK   42  A    between atoms: _106  and  _107
REMARK   43  A    between atoms: _106  and  _109
REMARK   44  A    between atoms: _109  and  _110
REMARK   45  A    between atoms: _115  and  _117
REMARK   46  A    between atoms: _117  and  _118
REMARK   47  A    between atoms: _117  and  _120
REMARK   48  A    between atoms: _120  and  _121
REMARK   49  A    between atoms: _124  and  _126
REMARK   50  A    between atoms: _126  and  _127
REMARK   51  A    between atoms: _126  and  _129
REMARK   52  A    between atoms: _129  and  _130
REMARK   53  A    between atoms: _135  and  _137
REMARK   54  A    between atoms: _137  and  _138
REMARK   55  A    between atoms: _137  and  _140
REMARK   56  A    between atoms: _140  and  _141
REMARK   57  A    between atoms: _147  and  _149
REMARK   58  A    between atoms: _149  and  _150
REMARK   59  A    between atoms: _149  and  _152
REMARK   60  A    between atoms: _152  and  _153
REMARK   61  A    between atoms: _159  and  _161
REMARK   62  A    between atoms: _161  and  _162
REMARK   63  A    between atoms: _161  and  _164
REMARK   64  A    between atoms: _164  and  _165
REMARK   65  A    between atoms: _165  and  _166
REMARK   66  A    between atoms: _169  and  _171
REMARK   67  A    between atoms: _171  and  _172
REMARK   68  A    between atoms: _171  and  _174
REMARK   69  A    between atoms: _174  and  _175
REMARK   70  A    between atoms: _175  and  _176
REMARK   71  A    between atoms: _176  and  _177
REMARK   72  A    between atoms: _186  and  _188
REMARK   73  A    between atoms: _188  and  _189
REMARK   74  A    between atoms: _188  and  _191
REMARK   75  A    between atoms: _191  and  _192
REMARK   76  A    between atoms: _197  and  _199
REMARK   77  A    between atoms: _199  and  _200
REMARK   78  A    between atoms: _199  and  _202
REMARK   79  A    between atoms: _202  and  _203
REMARK   80  A    between atoms: _206  and  _208
REMARK   81  A    between atoms: _208  and  _209
REMARK   82  A    between atoms: _208  and  _211
REMARK   83  A    between atoms: _211  and  _212
REMARK   84  A    between atoms: _215  and  _217
REMARK   85  A    between atoms: _217  and  _218
REMARK   86  A    between atoms: _217  and  _220
REMARK   87  A    between atoms: _220  and  _221
REMARK   88  A    between atoms: _226  and  _228
REMARK   89  A    between atoms: _228  and  _229
REMARK   90  A    between atoms: _228  and  _231
REMARK   91  A    between atoms: _231  and  _232
REMARK   92  A    between atoms: _235  and  _237
REMARK   93  A    between atoms: _237  and  _238
REMARK   94  A    between atoms: _237  and  _240
REMARK   95  A    between atoms: _240  and  _241
REMARK   96  A    between atoms: _246  and  _248
REMARK   97  A    between atoms: _248  and  _249
REMARK   98  A    between atoms: _248  and  _251
REMARK   99  A    between atoms: _251  and  _252
REMARK  100  A    between atoms: _257  and  _259
REMARK  101  A    between atoms: _259  and  _260
REMARK  102  A    between atoms: _259  and  _262
REMARK  103  A    between atoms: _262  and  _263
REMARK  104  A    between atoms: _266  and  _268
REMARK  105  A    between atoms: _268  and  _269
REMARK  106  A    between atoms: _268  and  _271
REMARK  107  A    between atoms: _274  and  _276
REMARK  108  A    between atoms: _276  and  _277
REMARK  109  A    between atoms: _276  and  _279
REMARK  110  A    between atoms: _279  and  _280
REMARK  111  A    between atoms: _284  and  _285
REMARK  112  A    between atoms: _290  and  _292
REMARK  113  A    between atoms: _292  and  _293
REMARK  114  A    between atoms: _292  and  _295
REMARK  115  A    between atoms: _295  and  _296
REMARK  116  A    between atoms: _296  and  _297
REMARK  117  A    between atoms: _300  and  _302
REMARK  118  A    between atoms: _302  and  _303
REMARK  119  A    between atoms: _306  and  _308
REMARK  120  A    between atoms: _308  and  _309
REMARK  121  A    between atoms: _308  and  _311
REMARK  122  A    between atoms: _311  and  _312
REMARK  123  A    between atoms: _315  and  _317
REMARK  124  A    between atoms: _317  and  _318
REMARK  125  A    between atoms: _317  and  _320
REMARK  126  A    between atoms: _320  and  _321
REMARK  127  A    between atoms: _321  and  _322
REMARK  128  A    between atoms: _325  and  _327
REMARK  129  A    between atoms: _327  and  _328
REMARK  130  A    between atoms: _327  and  _330
REMARK  131  A    between atoms: _330  and  _331
REMARK  132  A    between atoms: _336  and  _338
REMARK  133  A    between atoms: _338  and  _339
REMARK  134  A    between atoms: _341  and  _343
REMARK  135  A    between atoms: _343  and  _344
REMARK  136  A    between atoms: _343  and  _346
REMARK  137  A    between atoms: _349  and  _351
REMARK  138  A    between atoms: _351  and  _352
REMARK  139  A    between atoms: _355  and  _357
REMARK  140  A    between atoms: _357  and  _358
REMARK  141  A    between atoms: _357  and  _360
REMARK  142  A    between atoms: _360  and  _361
REMARK  143  A    between atoms: _366  and  _368
REMARK  144  A    between atoms: _368  and  _369
REMARK  145  A    between atoms: _368  and  _371
REMARK  146  A    between atoms: _371  and  _372
REMARK  147  A    between atoms: _372  and  _373
REMARK  148  A    between atoms: _373  and  _374
REMARK  149  A    between atoms: _374  and  _375
REMARK  150  A    between atoms: _379  and  _381
REMARK  151  A    between atoms: _381  and  _382
REMARK  152  A    between atoms: _381  and  _384
REMARK  153  A    between atoms: _384  and  _385
REMARK  154  A    between atoms: _388  and  _390
REMARK  155  A    between atoms: _390  and  _391
REMARK  156  A    between atoms: _390  and  _393
REMARK  157  A    between atoms: _393  and  _394
REMARK  158  A    between atoms: _399  and  _401
REMARK  159  A    between atoms: _401  and  _402
REMARK  160  A    between atoms: _404  and  _406
REMARK  161  A    between atoms: _406  and  _407
REMARK  162  A    between atoms: _406  and  _409
REMARK  163  A    between atoms: _409  and  _410
REMARK  164  A    between atoms: _410  and  _411
REMARK  165  A    between atoms: _411  and  _412
REMARK  166  A    between atoms: _412  and  _413
REMARK  167  A    between atoms: _417  and  _419
REMARK  168  A    between atoms: _419  and  _420
REMARK  169  A    between atoms: _419  and  _422
REMARK  170  A    between atoms: _422  and  _423
REMARK  171  A    between atoms: _423  and  _424
REMARK  172  A    between atoms: _424  and  _425
REMARK  173  A    between atoms: _434  and  _436
REMARK  174  A    between atoms: _436  and  _437
REMARK  175  A    between atoms: _436  and  _439
REMARK  176  A    between atoms: _439  and  _440
REMARK  177  A    between atoms: _445  and  _447
REMARK  178  A    between atoms: _447  and  _448
REMARK  179  A    between atoms: _447  and  _450
REMARK  180  A    between atoms: _450  and  _451
REMARK  181  A    between atoms: _456  and  _457
REMARK  182  A    between atoms: _459  and  _461
REMARK  183  A    between atoms: _461  and  _462
REMARK  184  A    between atoms: _461  and  _464
REMARK  185  A    between atoms: _464  and  _465
REMARK  186  A    between atoms: _465  and  _466
REMARK  187  A    between atoms: _466  and  _467
REMARK  188  A    between atoms: _467  and  _468
REMARK  189  A    between atoms: _472  and  _474
REMARK  190  A    between atoms: _474  and  _475
REMARK  191  A    between atoms: _474  and  _477
REMARK  192  A    between atoms: _477  and  _478
REMARK  193  A    between atoms: _483  and  _484
REMARK  194  A    between atoms: _486  and  _488
REMARK  195  A    between atoms: _488  and  _489
REMARK  196  A    between atoms: _488  and  _491
REMARK  197  A    between atoms: _491  and  _492
REMARK  198  A    between atoms: _494  and  _496
REMARK  199  A    between atoms: _496  and  _497
REMARK  200  A    between atoms: _496  and  _499
REMARK  201  A    between atoms: _499  and  _500
REMARK  202  A    between atoms: _503  and  _505
REMARK  203  A    between atoms: _505  and  _506
REMARK  204  A    between atoms: _505  and  _508
REMARK  205  A    between atoms: _508  and  _509
REMARK  206  A    between atoms: _509  and  _510
REMARK  207  A    between atoms: _513  and  _515
REMARK  208  A    between atoms: _515  and  _516
REMARK  209  A    between atoms: _519  and  _521
REMARK  210  A    between atoms: _521  and  _522
REMARK  211  A    between atoms: _521  and  _524
REMARK  212  A    between atoms: _524  and  _525
REMARK  213  A    between atoms: _527  and  _529
REMARK  214  A    between atoms: _529  and  _530
REMARK  215  A    between atoms: _532  and  _534
REMARK  216  A    between atoms: _534  and  _535
REMARK  217  A    between atoms: _534  and  _537
REMARK  218  A    between atoms: _537  and  _538
REMARK  219  A    between atoms: _541  and  _543
REMARK  220  A    between atoms: _543  and  _544
REMARK  221  A    between atoms: _546  and  _548
REMARK  222  A    between atoms: _548  and  _549
REMARK  223  A    between atoms: _548  and  _551
REMARK  224  A    between atoms: _551  and  _552
REMARK  225  A    between atoms: _557  and  _559
REMARK  226  A    between atoms: _559  and  _560
REMARK  227  A    between atoms: _559  and  _562
REMARK  228  A    between atoms: _562  and  _563
REMARK  229  A    between atoms: _563  and  _564
REMARK  230  A    between atoms: _571  and  _572
REMARK  231  A    between atoms: _572  and  _588
REMARK  232  A    between atoms: _573  and  _575
REMARK  233  A    between atoms: _575  and  _576
REMARK  234  A    between atoms: _576  and  _577
REMARK  235  A    between atoms: _581  and  _583
REMARK  236  A    between atoms: _583  and  _584
REMARK  237  A    between atoms: _583  and  _591
REMARK  238  A    between atoms: _584  and  _585
REMARK  239  A    between atoms: _585  and  _586
REMARK  240  A    between atoms: _586  and  _587
REMARK  241  A    between atoms: _587  and  _588
REMARK  242  A    between atoms: _593  and  _595
REMARK  243  A    between atoms: _595  and  _596
REMARK  244  A    between atoms: _595  and  _598
REMARK  245  A    between atoms: _598  and  _599
REMARK  246  A    between atoms: _602  and  _604
REMARK  247  A    between atoms: _604  and  _605
REMARK  248  A    between atoms: _607  and  _609
REMARK  249  A    between atoms: _609  and  _610
REMARK  250  A    between atoms: _613  and  _615
REMARK  251  A    between atoms: _615  and  _616
REMARK  252  A    between atoms: _615  and  _618
REMARK  253  A    between atoms: _618  and  _619
REMARK  254  A    between atoms: _619  and  _620
REMARK  255  A    between atoms: _620  and  _621
REMARK  256  A    between atoms: _630  and  _632
REMARK  257  A    between atoms: _632  and  _633
REMARK  258  A    between atoms: _632  and  _635
REMARK  259  A    between atoms: _635  and  _636
REMARK  260  A    between atoms: _641  and  _642
REMARK                            x       y       z     vdW  Elec       q    Type
REMARK                         _______ _______ _______ _____ _____    ______ ____
ROOT
ATOM      1  O   HOH     1      29.811  23.205  18.567  0.00  0.00    +0.000 OA
ENDROOT
TORSDOF 0
REMARK  Name = ../refined-set-2016/3g2l/3g2l_pocket.pdb
REMARK  260 active torsions:
REMARK  status: ('A' for Active; 'I' for Inactive)
REMARK    1  A    between atoms: _1  and  _3
REMARK    2  A    between atoms: _3  and  _4
REMARK    3  A    between atoms: _3  and  _6
REMARK    4  A    between atoms: _6  and  _7
REMARK    5  A    between atoms: _12  and  _13
REMARK    6  A    between atoms: _15  and  _17
REMARK    7  A    between atoms: _17  and  _18
REMARK    8  A    between atoms: _17  and  _20
REMARK    9  A    between atoms: _20  and  _21
REMARK   10  A    between atoms: _21  and  _22
REMARK   11  A    between atoms: _25  and  _27
REMARK   12  A    between atoms: _27  and  _28
REMARK   13  A    between atoms: _27  and  _30
REMARK   14  A    between atoms: _30  and  _31
REMARK   15  A    between atoms: _36  and  _38
REMARK   16  A    between atoms: _38  and  _39
REMARK   17  A    between atoms: _41  and  _43
REMARK   18  A    between atoms: _43  and  _44
REMARK   19  A    between atoms: _46  and  _48
REMARK   20  A    between atoms: _48  and  _49
REMARK   21  A    between atoms: _48  and  _51
REMARK   22  A    between atoms: _51  and  _52
REMARK   23  A    between atoms: _55  and  _57
REMARK   24  A    between atoms: _57  and  _58
REMARK   25  A    between atoms: _60  and  _62
REMARK   26  A    between atoms: _62  and  _63
REMARK   27  A    between atoms: _62  and  _65
REMARK   28  A    between atoms: _65  and  _66
REMARK   29  A    between atoms: _66  and  _67
REMARK   30  A    between atoms: _67  and  _68
REMARK   31  A    between atoms: _77  and  _79
REMARK   32  A    between atoms: _79  and  _80
REMARK   33  A    between atoms: _79  and  _82
REMARK   34  A    between atoms: _82  and  _83
REMARK   35  A    between atoms: _86  and  _88
REMARK   36  A    between atoms: _88  and  _89
REMARK   37  A    between atoms: _92  and  _94
REMARK   38  A    between atoms: _94  and  _95
REMARK   39  A    between atoms: _94  and  _97
REMARK   40  A    between atoms: _97  and  _98
REMARK   41  A    between atoms: _104  and  _106
REMARK   42  A    between atoms: _106  and  _107
REMARK   43  A    between atoms: _106  and  _109
REMARK   44  A    between atoms: _109  and  _110
REMARK   45  A    between atoms: _115  and  _117
REMARK   46  A    between atoms: _117  and  _118
REMARK   47  A    between atoms: _117  and  _120
REMARK   48  A    between atoms: _120  and  _121
REMARK   49  A    between atoms: _124  and  _126
REMARK   50  A    between atoms: _126  and  _127
REMARK   51  A    between atoms: _126  and  _129
REMARK   52  A    between atoms: _129  and  _130
REMARK   53  A    between atoms: _135  and  _137
REMARK   54  A    between atoms: _137  and  _138
REMARK   55  A    between atoms: _137  and  _140
REMARK   56  A    between atoms: _140  and  _141
REMARK   57  A    between atoms: _147  and  _149
REMARK   58  A    between atoms: _149  and  _150
REMARK   59  A    between atoms: _149  and  _152
REMARK   60  A    between atoms: _152  and  _153
REMARK   61  A    between atoms: _159  and  _161
REMARK   62  A    between atoms: _161  and  _162
REMARK   63  A    between atoms: _161  and  _164
REMARK   64  A    between atoms: _164  and  _165
REMARK   65  A    between atoms: _165  and  _166
REMARK   66  A    between atoms: _169  and  _171
REMARK   67  A    between atoms: _171  and  _172
REMARK   68  A    between atoms: _171  and  _174
REMARK   69  A    between atoms: _174  and  _175
REMARK   70  A    between atoms: _175  and  _176
REMARK   71  A    between atoms: _176  and  _177
REMARK   72  A    between atoms: _186  and  _188
REMARK   73  A    between atoms: _188  and  _189
REMARK   74  A    between atoms: _188  and  _191
REMARK   75  A    between atoms: _191  and  _192
REMARK   76  A    between atoms: _197  and  _199
REMARK   77  A    between atoms: _199  and  _200
REMARK   78  A    between atoms: _199  and  _202
REMARK   79  A    between atoms: _202  and  _203
REMARK   80  A    between atoms: _206  and  _208
REMARK   81  A    between atoms: _208  and  _209
REMARK   82  A    between atoms: _208  and  _211
REMARK   83  A    between atoms: _211  and  _212
REMARK   84  A    between atoms: _215  and  _217
REMARK   85  A    between atoms: _217  and  _218
REMARK   86  A    between atoms: _217  and  _220
REMARK   87  A    between atoms: _220  and  _221
REMARK   88  A    between atoms: _226  and  _228
REMARK   89  A    between atoms: _228  and  _229
REMARK   90  A    between atoms: _228  and  _231
REMARK   91  A    between atoms: _231  and  _232
REMARK   92  A    between atoms: _235  and  _237
REMARK   93  A    between atoms: _237  and  _238
REMARK   94  A    between atoms: _237  and  _240
REMARK   95  A    between atoms: _240  and  _241
REMARK   96  A    between atoms: _246  and  _248
REMARK   97  A    between atoms: _248  and  _249
REMARK   98  A    between atoms: _248  and  _251
REMARK   99  A    between atoms: _251  and  _252
REMARK  100  A    between atoms: _257  and  _259
REMARK  101  A    between atoms: _259  and  _260
REMARK  102  A    between atoms: _259  and  _262
REMARK  103  A    between atoms: _262  and  _263
REMARK  104  A    between atoms: _266  and  _268
REMARK  105  A    between atoms: _268  and  _269
REMARK  106  A    between atoms: _268  and  _271
REMARK  107  A    between atoms: _274  and  _276
REMARK  108  A    between atoms: _276  and  _277
REMARK  109  A    between atoms: _276  and  _279
REMARK  110  A    between atoms: _279  and  _280
REMARK  111  A    between atoms: _284  and  _285
REMARK  112  A    between atoms: _290  and  _292
REMARK  113  A    between atoms: _292  and  _293
REMARK  114  A    between atoms: _292  and  _295
REMARK  115  A    between atoms: _295  and  _296
REMARK  116  A    between atoms: _296  and  _297
REMARK  117  A    between atoms: _300  and  _302
REMARK  118  A    between atoms: _302  and  _303
REMARK  119  A    between atoms: _306  and  _308
REMARK  120  A    between atoms: _308  and  _309
REMARK  121  A    between atoms: _308  and  _311
REMARK  122  A    between atoms: _311  and  _312
REMARK  123  A    between atoms: _315  and  _317
REMARK  124  A    between atoms: _317  and  _318
REMARK  125  A    between atoms: _317  and  _320
REMARK  126  A    between atoms: _320  and  _321
REMARK  127  A    between atoms: _321  and  _322
REMARK  128  A    between atoms: _325  and  _327
REMARK  129  A    between atoms: _327  and  _328
REMARK  130  A    between atoms: _327  and  _330
REMARK  131  A    between atoms: _330  and  _331
REMARK  132  A    between atoms: _336  and  _338
REMARK  133  A    between atoms: _338  and  _339
REMARK  134  A    between atoms: _341  and  _343
REMARK  135  A    between atoms: _343  and  _344
REMARK  136  A    between atoms: _343  and  _346
REMARK  137  A    between atoms: _349  and  _351
REMARK  138  A    between atoms: _351  and  _352
REMARK  139  A    between atoms: _355  and  _357
REMARK  140  A    between atoms: _357  and  _358
REMARK  141  A    between atoms: _357  and  _360
REMARK  142  A    between atoms: _360  and  _361
REMARK  143  A    between atoms: _366  and  _368
REMARK  144  A    between atoms: _368  and  _369
REMARK  145  A    between atoms: _368  and  _371
REMARK  146  A    between atoms: _371  and  _372
REMARK  147  A    between atoms: _372  and  _373
REMARK  148  A    between atoms: _373  and  _374
REMARK  149  A    between atoms: _374  and  _375
REMARK  150  A    between atoms: _379  and  _381
REMARK  151  A    between atoms: _381  and  _382
REMARK  152  A    between atoms: _381  and  _384
REMARK  153  A    between atoms: _384  and  _385
REMARK  154  A    between atoms: _388  and  _390
REMARK  155  A    between atoms: _390  and  _391
REMARK  156  A    between atoms: _390  and  _393
REMARK  157  A    between atoms: _393  and  _394
REMARK  158  A    between atoms: _399  and  _401
REMARK  159  A    between atoms: _401  and  _402
REMARK  160  A    between atoms: _404  and  _406
REMARK  161  A    between atoms: _406  and  _407
REMARK  162  A    between atoms: _406  and  _409
REMARK  163  A    between atoms: _409  and  _410
REMARK  164  A    between atoms: _410  and  _411
REMARK  165  A    between atoms: _411  and  _412
REMARK  166  A    between atoms: _412  and  _413
REMARK  167  A    between atoms: _417  and  _419
REMARK  168  A    between atoms: _419  and  _420
REMARK  169  A    between atoms: _419  and  _422
REMARK  170  A    between atoms: _422  and  _423
REMARK  171  A    between atoms: _423  and  _424
REMARK  172  A    between atoms: _424  and  _425
REMARK  173  A    between atoms: _434  and  _436
REMARK  174  A    between atoms: _436  and  _437
REMARK  175  A    between atoms: _436  and  _439
REMARK  176  A    between atoms: _439  and  _440
REMARK  177  A    between atoms: _445  and  _447
REMARK  178  A    between atoms: _447  and  _448
REMARK  179  A    between atoms: _447  and  _450
REMARK  180  A    between atoms: _450  and  _451
REMARK  181  A    between atoms: _456  and  _457
REMARK  182  A    between atoms: _459  and  _461
REMARK  183  A    between atoms: _461  and  _462
REMARK  184  A    between atoms: _461  and  _464
REMARK  185  A    between atoms: _464  and  _465
REMARK  186  A    between atoms: _465  and  _466
REMARK  187  A    between atoms: _466  and  _467
REMARK  188  A    between atoms: _467  and  _468
REMARK  189  A    between atoms: _472  and  _474
REMARK  190  A    between atoms: _474  and  _475
REMARK  191  A    between atoms: _474  and  _477
REMARK  192  A    between atoms: _477  and  _478
REMARK  193  A    between atoms: _483  and  _484
REMARK  194  A    between atoms: _486  and  _488
REMARK  195  A    between atoms: _488  and  _489
REMARK  196  A    between atoms: _488  and  _491
REMARK  197  A    between atoms: _491  and  _492
REMARK  198  A    between atoms: _494  and  _496
REMARK  199  A    between atoms: _496  and  _497
REMARK  200  A    between atoms: _496  and  _499
REMARK  201  A    between atoms: _499  and  _500
REMARK  202  A    between atoms: _503  and  _505
REMARK  203  A    between atoms: _505  and  _506
REMARK  204  A    between atoms: _505  and  _508
REMARK  205  A    between atoms: _508  and  _509
REMARK  206  A    between atoms: _509  and  _510
REMARK  207  A    between atoms: _513  and  _515
REMARK  208  A    between atoms: _515  and  _516
REMARK  209  A    between atoms: _519  and  _521
REMARK  210  A    between atoms: _521  and  _522
REMARK  211  A    between atoms: _521  and  _524
REMARK  212  A    between atoms: _524  and  _525
REMARK  213  A    between atoms: _527  and  _529
REMARK  214  A    between atoms: _529  and  _530
REMARK  215  A    between atoms: _532  and  _534
REMARK  216  A    between atoms: _534  and  _535
REMARK  217  A    between atoms: _534  and  _537
REMARK  218  A    between atoms: _537  and  _538
REMARK  219  A    between atoms: _541  and  _543
REMARK  220  A    between atoms: _543  and  _544
REMARK  221  A    between atoms: _546  and  _548
REMARK  222  A    between atoms: _548  and  _549
REMARK  223  A    between atoms: _548  and  _551
REMARK  224  A    between atoms: _551  and  _552
REMARK  225  A    between atoms: _557  and  _559
REMARK  226  A    between atoms: _559  and  _560
REMARK  227  A    between atoms: _559  and  _562
REMARK  228  A    between atoms: _562  and  _563
REMARK  229  A    between atoms: _563  and  _564
REMARK  230  A    between atoms: _571  and  _572
REMARK  231  A    between atoms: _572  and  _588
REMARK  232  A    between atoms: _573  and  _575
REMARK  233  A    between atoms: _575  and  _576
REMARK  234  A    between atoms: _576  and  _577
REMARK  235  A    between atoms: _581  and  _583
REMARK  236  A    between atoms: _583  and  _584
REMARK  237  A    between atoms: _583  and  _591
REMARK  238  A    between atoms: _584  and  _585
REMARK  239  A    between atoms: _585  and  _586
REMARK  240  A    between atoms: _586  and  _587
REMARK  241  A    between atoms: _587  and  _588
REMARK  242  A    between atoms: _593  and  _595
REMARK  243  A    between atoms: _595  and  _596
REMARK  244  A    between atoms: _595  and  _598
REMARK  245  A    between atoms: _598  and  _599
REMARK  246  A    between atoms: _602  and  _604
REMARK  247  A    between atoms: _604  and  _605
REMARK  248  A    between atoms: _607  and  _609
REMARK  249  A    between atoms: _609  and  _610
REMARK  250  A    between atoms: _613  and  _615
REMARK  251  A    between atoms: _615  and  _616
REMARK  252  A    between atoms: _615  and  _618
REMARK  253  A    between atoms: _618  and  _619
REMARK  254  A    between atoms: _619  and  _620
REMARK  255  A    between atoms: _620  and  _621
REMARK  256  A    between atoms: _630  and  _632
REMARK  257  A    between atoms: _632  and  _633
REMARK  258  A    between atoms: _632  and  _635
REMARK  259  A    between atoms: _635  and  _636
REMARK  260  A    between atoms: _641  and  _642
REMARK                            x       y       z     vdW  Elec       q    Type
REMARK                         _______ _______ _______ _____ _____    ______ ____
ROOT
ATOM      1  O   HOH     1      29.479  26.053  18.199  0.00  0.00    +0.000 OA
ENDROOT
TORSDOF 0
REMARK  Name = ../refined-set-2016/3g2l/3g2l_pocket.pdb
REMARK  260 active torsions:
REMARK  status: ('A' for Active; 'I' for Inactive)
REMARK    1  A    between atoms: _1  and  _3
REMARK    2  A    between atoms: _3  and  _4
REMARK    3  A    between atoms: _3  and  _6
REMARK    4  A    between atoms: _6  and  _7
REMARK    5  A    between atoms: _12  and  _13
REMARK    6  A    between atoms: _15  and  _17
REMARK    7  A    between atoms: _17  and  _18
REMARK    8  A    between atoms: _17  and  _20
REMARK    9  A    between atoms: _20  and  _21
REMARK   10  A    between atoms: _21  and  _22
REMARK   11  A    between atoms: _25  and  _27
REMARK   12  A    between atoms: _27  and  _28
REMARK   13  A    between atoms: _27  and  _30
REMARK   14  A    between atoms: _30  and  _31
REMARK   15  A    between atoms: _36  and  _38
REMARK   16  A    between atoms: _38  and  _39
REMARK   17  A    between atoms: _41  and  _43
REMARK   18  A    between atoms: _43  and  _44
REMARK   19  A    between atoms: _46  and  _48
REMARK   20  A    between atoms: _48  and  _49
REMARK   21  A    between atoms: _48  and  _51
REMARK   22  A    between atoms: _51  and  _52
REMARK   23  A    between atoms: _55  and  _57
REMARK   24  A    between atoms: _57  and  _58
REMARK   25  A    between atoms: _60  and  _62
REMARK   26  A    between atoms: _62  and  _63
REMARK   27  A    between atoms: _62  and  _65
REMARK   28  A    between atoms: _65  and  _66
REMARK   29  A    between atoms: _66  and  _67
REMARK   30  A    between atoms: _67  and  _68
REMARK   31  A    between atoms: _77  and  _79
REMARK   32  A    between atoms: _79  and  _80
REMARK   33  A    between atoms: _79  and  _82
REMARK   34  A    between atoms: _82  and  _83
REMARK   35  A    between atoms: _86  and  _88
REMARK   36  A    between atoms: _88  and  _89
REMARK   37  A    between atoms: _92  and  _94
REMARK   38  A    between atoms: _94  and  _95
REMARK   39  A    between atoms: _94  and  _97
REMARK   40  A    between atoms: _97  and  _98
REMARK   41  A    between atoms: _104  and  _106
REMARK   42  A    between atoms: _106  and  _107
REMARK   43  A    between atoms: _106  and  _109
REMARK   44  A    between atoms: _109  and  _110
REMARK   45  A    between atoms: _115  and  _117
REMARK   46  A    between atoms: _117  and  _118
REMARK   47  A    between atoms: _117  and  _120
REMARK   48  A    between atoms: _120  and  _121
REMARK   49  A    between atoms: _124  and  _126
REMARK   50  A    between atoms: _126  and  _127
REMARK   51  A    between atoms: _126  and  _129
REMARK   52  A    between atoms: _129  and  _130
REMARK   53  A    between atoms: _135  and  _137
REMARK   54  A    between atoms: _137  and  _138
REMARK   55  A    between atoms: _137  and  _140
REMARK   56  A    between atoms: _140  and  _141
REMARK   57  A    between atoms: _147  and  _149
REMARK   58  A    between atoms: _149  and  _150
REMARK   59  A    between atoms: _149  and  _152
REMARK   60  A    between atoms: _152  and  _153
REMARK   61  A    between atoms: _159  and  _161
REMARK   62  A    between atoms: _161  and  _162
REMARK   63  A    between atoms: _161  and  _164
REMARK   64  A    between atoms: _164  and  _165
REMARK   65  A    between atoms: _165  and  _166
REMARK   66  A    between atoms: _169  and  _171
REMARK   67  A    between atoms: _171  and  _172
REMARK   68  A    between atoms: _171  and  _174
REMARK   69  A    between atoms: _174  and  _175
REMARK   70  A    between atoms: _175  and  _176
REMARK   71  A    between atoms: _176  and  _177
REMARK   72  A    between atoms: _186  and  _188
REMARK   73  A    between atoms: _188  and  _189
REMARK   74  A    between atoms: _188  and  _191
REMARK   75  A    between atoms: _191  and  _192
REMARK   76  A    between atoms: _197  and  _199
REMARK   77  A    between atoms: _199  and  _200
REMARK   78  A    between atoms: _199  and  _202
REMARK   79  A    between atoms: _202  and  _203
REMARK   80  A    between atoms: _206  and  _208
REMARK   81  A    between atoms: _208  and  _209
REMARK   82  A    between atoms: _208  and  _211
REMARK   83  A    between atoms: _211  and  _212
REMARK   84  A    between atoms: _215  and  _217
REMARK   85  A    between atoms: _217  and  _218
REMARK   86  A    between atoms: _217  and  _220
REMARK   87  A    between atoms: _220  and  _221
REMARK   88  A    between atoms: _226  and  _228
REMARK   89  A    between atoms: _228  and  _229
REMARK   90  A    between atoms: _228  and  _231
REMARK   91  A    between atoms: _231  and  _232
REMARK   92  A    between atoms: _235  and  _237
REMARK   93  A    between atoms: _237  and  _238
REMARK   94  A    between atoms: _237  and  _240
REMARK   95  A    between atoms: _240  and  _241
REMARK   96  A    between atoms: _246  and  _248
REMARK   97  A    between atoms: _248  and  _249
REMARK   98  A    between atoms: _248  and  _251
REMARK   99  A    between atoms: _251  and  _252
REMARK  100  A    between atoms: _257  and  _259
REMARK  101  A    between atoms: _259  and  _260
REMARK  102  A    between atoms: _259  and  _262
REMARK  103  A    between atoms: _262  and  _263
REMARK  104  A    between atoms: _266  and  _268
REMARK  105  A    between atoms: _268  and  _269
REMARK  106  A    between atoms: _268  and  _271
REMARK  107  A    between atoms: _274  and  _276
REMARK  108  A    between atoms: _276  and  _277
REMARK  109  A    between atoms: _276  and  _279
REMARK  110  A    between atoms: _279  and  _280
REMARK  111  A    between atoms: _284  and  _285
REMARK  112  A    between atoms: _290  and  _292
REMARK  113  A    between atoms: _292  and  _293
REMARK  114  A    between atoms: _292  and  _295
REMARK  115  A    between atoms: _295  and  _296
REMARK  116  A    between atoms: _296  and  _297
REMARK  117  A    between atoms: _300  and  _302
REMARK  118  A    between atoms: _302  and  _303
REMARK  119  A    between atoms: _306  and  _308
REMARK  120  A    between atoms: _308  and  _309
REMARK  121  A    between atoms: _308  and  _311
REMARK  122  A    between atoms: _311  and  _312
REMARK  123  A    between atoms: _315  and  _317
REMARK  124  A    between atoms: _317  and  _318
REMARK  125  A    between atoms: _317  and  _320
REMARK  126  A    between atoms: _320  and  _321
REMARK  127  A    between atoms: _321  and  _322
REMARK  128  A    between atoms: _325  and  _327
REMARK  129  A    between atoms: _327  and  _328
REMARK  130  A    between atoms: _327  and  _330
REMARK  131  A    between atoms: _330  and  _331
REMARK  132  A    between atoms: _336  and  _338
REMARK  133  A    between atoms: _338  and  _339
REMARK  134  A    between atoms: _341  and  _343
REMARK  135  A    between atoms: _343  and  _344
REMARK  136  A    between atoms: _343  and  _346
REMARK  137  A    between atoms: _349  and  _351
REMARK  138  A    between atoms: _351  and  _352
REMARK  139  A    between atoms: _355  and  _357
REMARK  140  A    between atoms: _357  and  _358
REMARK  141  A    between atoms: _357  and  _360
REMARK  142  A    between atoms: _360  and  _361
REMARK  143  A    between atoms: _366  and  _368
REMARK  144  A    between atoms: _368  and  _369
REMARK  145  A    between atoms: _368  and  _371
REMARK  146  A    between atoms: _371  and  _372
REMARK  147  A    between atoms: _372  and  _373
REMARK  148  A    between atoms: _373  and  _374
REMARK  149  A    between atoms: _374  and  _375
REMARK  150  A    between atoms: _379  and  _381
REMARK  151  A    between atoms: _381  and  _382
REMARK  152  A    between atoms: _381  and  _384
REMARK  153  A    between atoms: _384  and  _385
REMARK  154  A    between atoms: _388  and  _390
REMARK  155  A    between atoms: _390  and  _391
REMARK  156  A    between atoms: _390  and  _393
REMARK  157  A    between atoms: _393  and  _394
REMARK  158  A    between atoms: _399  and  _401
REMARK  159  A    between atoms: _401  and  _402
REMARK  160  A    between atoms: _404  and  _406
REMARK  161  A    between atoms: _406  and  _407
REMARK  162  A    between atoms: _406  and  _409
REMARK  163  A    between atoms: _409  and  _410
REMARK  164  A    between atoms: _410  and  _411
REMARK  165  A    between atoms: _411  and  _412
REMARK  166  A    between atoms: _412  and  _413
REMARK  167  A    between atoms: _417  and  _419
REMARK  168  A    between atoms: _419  and  _420
REMARK  169  A    between atoms: _419  and  _422
REMARK  170  A    between atoms: _422  and  _423
REMARK  171  A    between atoms: _423  and  _424
REMARK  172  A    between atoms: _424  and  _425
REMARK  173  A    between atoms: _434  and  _436
REMARK  174  A    between atoms: _436  and  _437
REMARK  175  A    between atoms: _436  and  _439
REMARK  176  A    between atoms: _439  and  _440
REMARK  177  A    between atoms: _445  and  _447
REMARK  178  A    between atoms: _447  and  _448
REMARK  179  A    between atoms: _447  and  _450
REMARK  180  A    between atoms: _450  and  _451
REMARK  181  A    between atoms: _456  and  _457
REMARK  182  A    between atoms: _459  and  _461
REMARK  183  A    between atoms: _461  and  _462
REMARK  184  A    between atoms: _461  and  _464
REMARK  185  A    between atoms: _464  and  _465
REMARK  186  A    between atoms: _465  and  _466
REMARK  187  A    between atoms: _466  and  _467
REMARK  188  A    between atoms: _467  and  _468
REMARK  189  A    between atoms: _472  and  _474
REMARK  190  A    between atoms: _474  and  _475
REMARK  191  A    between atoms: _474  and  _477
REMARK  192  A    between atoms: _477  and  _478
REMARK  193  A    between atoms: _483  and  _484
REMARK  194  A    between atoms: _486  and  _488
REMARK  195  A    between atoms: _488  and  _489
REMARK  196  A    between atoms: _488  and  _491
REMARK  197  A    between atoms: _491  and  _492
REMARK  198  A    between atoms: _494  and  _496
REMARK  199  A    between atoms: _496  and  _497
REMARK  200  A    between atoms: _496  and  _499
REMARK  201  A    between atoms: _499  and  _500
REMARK  202  A    between atoms: _503  and  _505
REMARK  203  A    between atoms: _505  and  _506
REMARK  204  A    between atoms: _505  and  _508
REMARK  205  A    between atoms: _508  and  _509
REMARK  206  A    between atoms: _509  and  _510
REMARK  207  A    between atoms: _513  and  _515
REMARK  208  A    between atoms: _515  and  _516
REMARK  209  A    between atoms: _519  and  _521
REMARK  210  A    between atoms: _521  and  _522
REMARK  211  A    between atoms: _521  and  _524
REMARK  212  A    between atoms: _524  and  _525
REMARK  213  A    between atoms: _527  and  _529
REMARK  214  A    between atoms: _529  and  _530
REMARK  215  A    between atoms: _532  and  _534
REMARK  216  A    between atoms: _534  and  _535
REMARK  217  A    between atoms: _534  and  _537
REMARK  218  A    between atoms: _537  and  _538
REMARK  219  A    between atoms: _541  and  _543
REMARK  220  A    between atoms: _543  and  _544
REMARK  221  A    between atoms: _546  and  _548
REMARK  222  A    between atoms: _548  and  _549
REMARK  223  A    between atoms: _548  and  _551
REMARK  224  A    between atoms: _551  and  _552
REMARK  225  A    between atoms: _557  and  _559
REMARK  226  A    between atoms: _559  and  _560
REMARK  227  A    between atoms: _559  and  _562
REMARK  228  A    between atoms: _562  and  _563
REMARK  229  A    between atoms: _563  and  _564
REMARK  230  A    between atoms: _571  and  _572
REMARK  231  A    between atoms: _572  and  _588
REMARK  232  A    between atoms: _573  and  _575
REMARK  233  A    between atoms: _575  and  _576
REMARK  234  A    between atoms: _576  and  _577
REMARK  235  A    between atoms: _581  and  _583
REMARK  236  A    between atoms: _583  and  _584
REMARK  237  A    between atoms: _583  and  _591
REMARK  238  A    between atoms: _584  and  _585
REMARK  239  A    between atoms: _585  and  _586
REMARK  240  A    between atoms: _586  and  _587
REMARK  241  A    between atoms: _587  and  _588
REMARK  242  A    between atoms: _593  and  _595
REMARK  243  A    between atoms: _595  and  _596
REMARK  244  A    between atoms: _595  and  _598
REMARK  245  A    between atoms: _598  and  _599
REMARK  246  A    between atoms: _602  and  _604
REMARK  247  A    between atoms: _604  and  _605
REMARK  248  A    between atoms: _607  and  _609
REMARK  249  A    between atoms: _609  and  _610
REMARK  250  A    between atoms: _613  and  _615
REMARK  251  A    between atoms: _615  and  _616
REMARK  252  A    between atoms: _615  and  _618
REMARK  253  A    between atoms: _618  and  _619
REMARK  254  A    between atoms: _619  and  _620
REMARK  255  A    between atoms: _620  and  _621
REMARK  256  A    between atoms: _630  and  _632
REMARK  257  A    between atoms: _632  and  _633
REMARK  258  A    between atoms: _632  and  _635
REMARK  259  A    between atoms: _635  and  _636
REMARK  260  A    between atoms: _641  and  _642
REMARK                            x       y       z     vdW  Elec       q    Type
REMARK                         _______ _______ _______ _____ _____    ______ ____
ROOT
ATOM      1  O   HOH     1      29.157  27.393  20.524  0.00  0.00    +0.000 OA
ENDROOT
TORSDOF 0
REMARK  Name = ../refined-set-2016/3g2l/3g2l_pocket.pdb
REMARK  260 active torsions:
REMARK  status: ('A' for Active; 'I' for Inactive)
REMARK    1  A    between atoms: _1  and  _3
REMARK    2  A    between atoms: _3  and  _4
REMARK    3  A    between atoms: _3  and  _6
REMARK    4  A    between atoms: _6  and  _7
REMARK    5  A    between atoms: _12  and  _13
REMARK    6  A    between atoms: _15  and  _17
REMARK    7  A    between atoms: _17  and  _18
REMARK    8  A    between atoms: _17  and  _20
REMARK    9  A    between atoms: _20  and  _21
REMARK   10  A    between atoms: _21  and  _22
REMARK   11  A    between atoms: _25  and  _27
REMARK   12  A    between atoms: _27  and  _28
REMARK   13  A    between atoms: _27  and  _30
REMARK   14  A    between atoms: _30  and  _31
REMARK   15  A    between atoms: _36  and  _38
REMARK   16  A    between atoms: _38  and  _39
REMARK   17  A    between atoms: _41  and  _43
REMARK   18  A    between atoms: _43  and  _44
REMARK   19  A    between atoms: _46  and  _48
REMARK   20  A    between atoms: _48  and  _49
REMARK   21  A    between atoms: _48  and  _51
REMARK   22  A    between atoms: _51  and  _52
REMARK   23  A    between atoms: _55  and  _57
REMARK   24  A    between atoms: _57  and  _58
REMARK   25  A    between atoms: _60  and  _62
REMARK   26  A    between atoms: _62  and  _63
REMARK   27  A    between atoms: _62  and  _65
REMARK   28  A    between atoms: _65  and  _66
REMARK   29  A    between atoms: _66  and  _67
REMARK   30  A    between atoms: _67  and  _68
REMARK   31  A    between atoms: _77  and  _79
REMARK   32  A    between atoms: _79  and  _80
REMARK   33  A    between atoms: _79  and  _82
REMARK   34  A    between atoms: _82  and  _83
REMARK   35  A    between atoms: _86  and  _88
REMARK   36  A    between atoms: _88  and  _89
REMARK   37  A    between atoms: _92  and  _94
REMARK   38  A    between atoms: _94  and  _95
REMARK   39  A    between atoms: _94  and  _97
REMARK   40  A    between atoms: _97  and  _98
REMARK   41  A    between atoms: _104  and  _106
REMARK   42  A    between atoms: _106  and  _107
REMARK   43  A    between atoms: _106  and  _109
REMARK   44  A    between atoms: _109  and  _110
REMARK   45  A    between atoms: _115  and  _117
REMARK   46  A    between atoms: _117  and  _118
REMARK   47  A    between atoms: _117  and  _120
REMARK   48  A    between atoms: _120  and  _121
REMARK   49  A    between atoms: _124  and  _126
REMARK   50  A    between atoms: _126  and  _127
REMARK   51  A    between atoms: _126  and  _129
REMARK   52  A    between atoms: _129  and  _130
REMARK   53  A    between atoms: _135  and  _137
REMARK   54  A    between atoms: _137  and  _138
REMARK   55  A    between atoms: _137  and  _140
REMARK   56  A    between atoms: _140  and  _141
REMARK   57  A    between atoms: _147  and  _149
REMARK   58  A    between atoms: _149  and  _150
REMARK   59  A    between atoms: _149  and  _152
REMARK   60  A    between atoms: _152  and  _153
REMARK   61  A    between atoms: _159  and  _161
REMARK   62  A    between atoms: _161  and  _162
REMARK   63  A    between atoms: _161  and  _164
REMARK   64  A    between atoms: _164  and  _165
REMARK   65  A    between atoms: _165  and  _166
REMARK   66  A    between atoms: _169  and  _171
REMARK   67  A    between atoms: _171  and  _172
REMARK   68  A    between atoms: _171  and  _174
REMARK   69  A    between atoms: _174  and  _175
REMARK   70  A    between atoms: _175  and  _176
REMARK   71  A    between atoms: _176  and  _177
REMARK   72  A    between atoms: _186  and  _188
REMARK   73  A    between atoms: _188  and  _189
REMARK   74  A    between atoms: _188  and  _191
REMARK   75  A    between atoms: _191  and  _192
REMARK   76  A    between atoms: _197  and  _199
REMARK   77  A    between atoms: _199  and  _200
REMARK   78  A    between atoms: _199  and  _202
REMARK   79  A    between atoms: _202  and  _203
REMARK   80  A    between atoms: _206  and  _208
REMARK   81  A    between atoms: _208  and  _209
REMARK   82  A    between atoms: _208  and  _211
REMARK   83  A    between atoms: _211  and  _212
REMARK   84  A    between atoms: _215  and  _217
REMARK   85  A    between atoms: _217  and  _218
REMARK   86  A    between atoms: _217  and  _220
REMARK   87  A    between atoms: _220  and  _221
REMARK   88  A    between atoms: _226  and  _228
REMARK   89  A    between atoms: _228  and  _229
REMARK   90  A    between atoms: _228  and  _231
REMARK   91  A    between atoms: _231  and  _232
REMARK   92  A    between atoms: _235  and  _237
REMARK   93  A    between atoms: _237  and  _238
REMARK   94  A    between atoms: _237  and  _240
REMARK   95  A    between atoms: _240  and  _241
REMARK   96  A    between atoms: _246  and  _248
REMARK   97  A    between atoms: _248  and  _249
REMARK   98  A    between atoms: _248  and  _251
REMARK   99  A    between atoms: _251  and  _252
REMARK  100  A    between atoms: _257  and  _259
REMARK  101  A    between atoms: _259  and  _260
REMARK  102  A    between atoms: _259  and  _262
REMARK  103  A    between atoms: _262  and  _263
REMARK  104  A    between atoms: _266  and  _268
REMARK  105  A    between atoms: _268  and  _269
REMARK  106  A    between atoms: _268  and  _271
REMARK  107  A    between atoms: _274  and  _276
REMARK  108  A    between atoms: _276  and  _277
REMARK  109  A    between atoms: _276  and  _279
REMARK  110  A    between atoms: _279  and  _280
REMARK  111  A    between atoms: _284  and  _285
REMARK  112  A    between atoms: _290  and  _292
REMARK  113  A    between atoms: _292  and  _293
REMARK  114  A    between atoms: _292  and  _295
REMARK  115  A    between atoms: _295  and  _296
REMARK  116  A    between atoms: _296  and  _297
REMARK  117  A    between atoms: _300  and  _302
REMARK  118  A    between atoms: _302  and  _303
REMARK  119  A    between atoms: _306  and  _308
REMARK  120  A    between atoms: _308  and  _309
REMARK  121  A    between atoms: _308  and  _311
REMARK  122  A    between atoms: _311  and  _312
REMARK  123  A    between atoms: _315  and  _317
REMARK  124  A    between atoms: _317  and  _318
REMARK  125  A    between atoms: _317  and  _320
REMARK  126  A    between atoms: _320  and  _321
REMARK  127  A    between atoms: _321  and  _322
REMARK  128  A    between atoms: _325  and  _327
REMARK  129  A    between atoms: _327  and  _328
REMARK  130  A    between atoms: _327  and  _330
REMARK  131  A    between atoms: _330  and  _331
REMARK  132  A    between atoms: _336  and  _338
REMARK  133  A    between atoms: _338  and  _339
REMARK  134  A    between atoms: _341  and  _343
REMARK  135  A    between atoms: _343  and  _344
REMARK  136  A    between atoms: _343  and  _346
REMARK  137  A    between atoms: _349  and  _351
REMARK  138  A    between atoms: _351  and  _352
REMARK  139  A    between atoms: _355  and  _357
REMARK  140  A    between atoms: _357  and  _358
REMARK  141  A    between atoms: _357  and  _360
REMARK  142  A    between atoms: _360  and  _361
REMARK  143  A    between atoms: _366  and  _368
REMARK  144  A    between atoms: _368  and  _369
REMARK  145  A    between atoms: _368  and  _371
REMARK  146  A    between atoms: _371  and  _372
REMARK  147  A    between atoms: _372  and  _373
REMARK  148  A    between atoms: _373  and  _374
REMARK  149  A    between atoms: _374  and  _375
REMARK  150  A    between atoms: _379  and  _381
REMARK  151  A    between atoms: _381  and  _382
REMARK  152  A    between atoms: _381  and  _384
REMARK  153  A    between atoms: _384  and  _385
REMARK  154  A    between atoms: _388  and  _390
REMARK  155  A    between atoms: _390  and  _391
REMARK  156  A    between atoms: _390  and  _393
REMARK  157  A    between atoms: _393  and  _394
REMARK  158  A    between atoms: _399  and  _401
REMARK  159  A    between atoms: _401  and  _402
REMARK  160  A    between atoms: _404  and  _406
REMARK  161  A    between atoms: _406  and  _407
REMARK  162  A    between atoms: _406  and  _409
REMARK  163  A    between atoms: _409  and  _410
REMARK  164  A    between atoms: _410  and  _411
REMARK  165  A    between atoms: _411  and  _412
REMARK  166  A    between atoms: _412  and  _413
REMARK  167  A    between atoms: _417  and  _419
REMARK  168  A    between atoms: _419  and  _420
REMARK  169  A    between atoms: _419  and  _422
REMARK  170  A    between atoms: _422  and  _423
REMARK  171  A    between atoms: _423  and  _424
REMARK  172  A    between atoms: _424  and  _425
REMARK  173  A    between atoms: _434  and  _436
REMARK  174  A    between atoms: _436  and  _437
REMARK  175  A    between atoms: _436  and  _439
REMARK  176  A    between atoms: _439  and  _440
REMARK  177  A    between atoms: _445  and  _447
REMARK  178  A    between atoms: _447  and  _448
REMARK  179  A    between atoms: _447  and  _450
REMARK  180  A    between atoms: _450  and  _451
REMARK  181  A    between atoms: _456  and  _457
REMARK  182  A    between atoms: _459  and  _461
REMARK  183  A    between atoms: _461  and  _462
REMARK  184  A    between atoms: _461  and  _464
REMARK  185  A    between atoms: _464  and  _465
REMARK  186  A    between atoms: _465  and  _466
REMARK  187  A    between atoms: _466  and  _467
REMARK  188  A    between atoms: _467  and  _468
REMARK  189  A    between atoms: _472  and  _474
REMARK  190  A    between atoms: _474  and  _475
REMARK  191  A    between atoms: _474  and  _477
REMARK  192  A    between atoms: _477  and  _478
REMARK  193  A    between atoms: _483  and  _484
REMARK  194  A    between atoms: _486  and  _488
REMARK  195  A    between atoms: _488  and  _489
REMARK  196  A    between atoms: _488  and  _491
REMARK  197  A    between atoms: _491  and  _492
REMARK  198  A    between atoms: _494  and  _496
REMARK  199  A    between atoms: _496  and  _497
REMARK  200  A    between atoms: _496  and  _499
REMARK  201  A    between atoms: _499  and  _500
REMARK  202  A    between atoms: _503  and  _505
REMARK  203  A    between atoms: _505  and  _506
REMARK  204  A    between atoms: _505  and  _508
REMARK  205  A    between atoms: _508  and  _509
REMARK  206  A    between atoms: _509  and  _510
REMARK  207  A    between atoms: _513  and  _515
REMARK  208  A    between atoms: _515  and  _516
REMARK  209  A    between atoms: _519  and  _521
REMARK  210  A    between atoms: _521  and  _522
REMARK  211  A    between atoms: _521  and  _524
REMARK  212  A    between atoms: _524  and  _525
REMARK  213  A    between atoms: _527  and  _529
REMARK  214  A    between atoms: _529  and  _530
REMARK  215  A    between atoms: _532  and  _534
REMARK  216  A    between atoms: _534  and  _535
REMARK  217  A    between atoms: _534  and  _537
REMARK  218  A    between atoms: _537  and  _538
REMARK  219  A    between atoms: _541  and  _543
REMARK  220  A    between atoms: _543  and  _544
REMARK  221  A    between atoms: _546  and  _548
REMARK  222  A    between atoms: _548  and  _549
REMARK  223  A    between atoms: _548  and  _551
REMARK  224  A    between atoms: _551  and  _552
REMARK  225  A    between atoms: _557  and  _559
REMARK  226  A    between atoms: _559  and  _560
REMARK  227  A    between atoms: _559  and  _562
REMARK  228  A    between atoms: _562  and  _563
REMARK  229  A    between atoms: _563  and  _564
REMARK  230  A    between atoms: _571  and  _572
REMARK  231  A    between atoms: _572  and  _588
REMARK  232  A    between atoms: _573  and  _575
REMARK  233  A    between atoms: _575  and  _576
REMARK  234  A    between atoms: _576  and  _577
REMARK  235  A    between atoms: _581  and  _583
REMARK  236  A    between atoms: _583  and  _584
REMARK  237  A    between atoms: _583  and  _591
REMARK  238  A    between atoms: _584  and  _585
REMARK  239  A    between atoms: _585  and  _586
REMARK  240  A    between atoms: _586  and  _587
REMARK  241  A    between atoms: _587  and  _588
REMARK  242  A    between atoms: _593  and  _595
REMARK  243  A    between atoms: _595  and  _596
REMARK  244  A    between atoms: _595  and  _598
REMARK  245  A    between atoms: _598  and  _599
REMARK  246  A    between atoms: _602  and  _604
REMARK  247  A    between atoms: _604  and  _605
REMARK  248  A    between atoms: _607  and  _609
REMARK  249  A    between atoms: _609  and  _610
REMARK  250  A    between atoms: _613  and  _615
REMARK  251  A    between atoms: _615  and  _616
REMARK  252  A    between atoms: _615  and  _618
REMARK  253  A    between atoms: _618  and  _619
REMARK  254  A    between atoms: _619  and  _620
REMARK  255  A    between atoms: _620  and  _621
REMARK  256  A    between atoms: _630  and  _632
REMARK  257  A    between atoms: _632  and  _633
REMARK  258  A    between atoms: _632  and  _635
REMARK  259  A    between atoms: _635  and  _636
REMARK  260  A    between atoms: _641  and  _642
REMARK                            x       y       z     vdW  Elec       q    Type
REMARK                         _______ _______ _______ _____ _____    ______ ____
ROOT
ATOM      1  O   HOH     1      41.417  26.592  37.710  0.00  0.00    +0.000 OA
ENDROOT
TORSDOF 0
REMARK  Name = ../refined-set-2016/3g2l/3g2l_pocket.pdb
REMARK  260 active torsions:
REMARK  status: ('A' for Active; 'I' for Inactive)
REMARK    1  A    between atoms: _1  and  _3
REMARK    2  A    between atoms: _3  and  _4
REMARK    3  A    between atoms: _3  and  _6
REMARK    4  A    between atoms: _6  and  _7
REMARK    5  A    between atoms: _12  and  _13
REMARK    6  A    between atoms: _15  and  _17
REMARK    7  A    between atoms: _17  and  _18
REMARK    8  A    between atoms: _17  and  _20
REMARK    9  A    between atoms: _20  and  _21
REMARK   10  A    between atoms: _21  and  _22
REMARK   11  A    between atoms: _25  and  _27
REMARK   12  A    between atoms: _27  and  _28
REMARK   13  A    between atoms: _27  and  _30
REMARK   14  A    between atoms: _30  and  _31
REMARK   15  A    between atoms: _36  and  _38
REMARK   16  A    between atoms: _38  and  _39
REMARK   17  A    between atoms: _41  and  _43
REMARK   18  A    between atoms: _43  and  _44
REMARK   19  A    between atoms: _46  and  _48
REMARK   20  A    between atoms: _48  and  _49
REMARK   21  A    between atoms: _48  and  _51
REMARK   22  A    between atoms: _51  and  _52
REMARK   23  A    between atoms: _55  and  _57
REMARK   24  A    between atoms: _57  and  _58
REMARK   25  A    between atoms: _60  and  _62
REMARK   26  A    between atoms: _62  and  _63
REMARK   27  A    between atoms: _62  and  _65
REMARK   28  A    between atoms: _65  and  _66
REMARK   29  A    between atoms: _66  and  _67
REMARK   30  A    between atoms: _67  and  _68
REMARK   31  A    between atoms: _77  and  _79
REMARK   32  A    between atoms: _79  and  _80
REMARK   33  A    between atoms: _79  and  _82
REMARK   34  A    between atoms: _82  and  _83
REMARK   35  A    between atoms: _86  and  _88
REMARK   36  A    between atoms: _88  and  _89
REMARK   37  A    between atoms: _92  and  _94
REMARK   38  A    between atoms: _94  and  _95
REMARK   39  A    between atoms: _94  and  _97
REMARK   40  A    between atoms: _97  and  _98
REMARK   41  A    between atoms: _104  and  _106
REMARK   42  A    between atoms: _106  and  _107
REMARK   43  A    between atoms: _106  and  _109
REMARK   44  A    between atoms: _109  and  _110
REMARK   45  A    between atoms: _115  and  _117
REMARK   46  A    between atoms: _117  and  _118
REMARK   47  A    between atoms: _117  and  _120
REMARK   48  A    between atoms: _120  and  _121
REMARK   49  A    between atoms: _124  and  _126
REMARK   50  A    between atoms: _126  and  _127
REMARK   51  A    between atoms: _126  and  _129
REMARK   52  A    between atoms: _129  and  _130
REMARK   53  A    between atoms: _135  and  _137
REMARK   54  A    between atoms: _137  and  _138
REMARK   55  A    between atoms: _137  and  _140
REMARK   56  A    between atoms: _140  and  _141
REMARK   57  A    between atoms: _147  and  _149
REMARK   58  A    between atoms: _149  and  _150
REMARK   59  A    between atoms: _149  and  _152
REMARK   60  A    between atoms: _152  and  _153
REMARK   61  A    between atoms: _159  and  _161
REMARK   62  A    between atoms: _161  and  _162
REMARK   63  A    between atoms: _161  and  _164
REMARK   64  A    between atoms: _164  and  _165
REMARK   65  A    between atoms: _165  and  _166
REMARK   66  A    between atoms: _169  and  _171
REMARK   67  A    between atoms: _171  and  _172
REMARK   68  A    between atoms: _171  and  _174
REMARK   69  A    between atoms: _174  and  _175
REMARK   70  A    between atoms: _175  and  _176
REMARK   71  A    between atoms: _176  and  _177
REMARK   72  A    between atoms: _186  and  _188
REMARK   73  A    between atoms: _188  and  _189
REMARK   74  A    between atoms: _188  and  _191
REMARK   75  A    between atoms: _191  and  _192
REMARK   76  A    between atoms: _197  and  _199
REMARK   77  A    between atoms: _199  and  _200
REMARK   78  A    between atoms: _199  and  _202
REMARK   79  A    between atoms: _202  and  _203
REMARK   80  A    between atoms: _206  and  _208
REMARK   81  A    between atoms: _208  and  _209
REMARK   82  A    between atoms: _208  and  _211
REMARK   83  A    between atoms: _211  and  _212
REMARK   84  A    between atoms: _215  and  _217
REMARK   85  A    between atoms: _217  and  _218
REMARK   86  A    between atoms: _217  and  _220
REMARK   87  A    between atoms: _220  and  _221
REMARK   88  A    between atoms: _226  and  _228
REMARK   89  A    between atoms: _228  and  _229
REMARK   90  A    between atoms: _228  and  _231
REMARK   91  A    between atoms: _231  and  _232
REMARK   92  A    between atoms: _235  and  _237
REMARK   93  A    between atoms: _237  and  _238
REMARK   94  A    between atoms: _237  and  _240
REMARK   95  A    between atoms: _240  and  _241
REMARK   96  A    between atoms: _246  and  _248
REMARK   97  A    between atoms: _248  and  _249
REMARK   98  A    between atoms: _248  and  _251
REMARK   99  A    between atoms: _251  and  _252
REMARK  100  A    between atoms: _257  and  _259
REMARK  101  A    between atoms: _259  and  _260
REMARK  102  A    between atoms: _259  and  _262
REMARK  103  A    between atoms: _262  and  _263
REMARK  104  A    between atoms: _266  and  _268
REMARK  105  A    between atoms: _268  and  _269
REMARK  106  A    between atoms: _268  and  _271
REMARK  107  A    between atoms: _274  and  _276
REMARK  108  A    between atoms: _276  and  _277
REMARK  109  A    between atoms: _276  and  _279
REMARK  110  A    between atoms: _279  and  _280
REMARK  111  A    between atoms: _284  and  _285
REMARK  112  A    between atoms: _290  and  _292
REMARK  113  A    between atoms: _292  and  _293
REMARK  114  A    between atoms: _292  and  _295
REMARK  115  A    between atoms: _295  and  _296
REMARK  116  A    between atoms: _296  and  _297
REMARK  117  A    between atoms: _300  and  _302
REMARK  118  A    between atoms: _302  and  _303
REMARK  119  A    between atoms: _306  and  _308
REMARK  120  A    between atoms: _308  and  _309
REMARK  121  A    between atoms: _308  and  _311
REMARK  122  A    between atoms: _311  and  _312
REMARK  123  A    between atoms: _315  and  _317
REMARK  124  A    between atoms: _317  and  _318
REMARK  125  A    between atoms: _317  and  _320
REMARK  126  A    between atoms: _320  and  _321
REMARK  127  A    between atoms: _321  and  _322
REMARK  128  A    between atoms: _325  and  _327
REMARK  129  A    between atoms: _327  and  _328
REMARK  130  A    between atoms: _327  and  _330
REMARK  131  A    between atoms: _330  and  _331
REMARK  132  A    between atoms: _336  and  _338
REMARK  133  A    between atoms: _338  and  _339
REMARK  134  A    between atoms: _341  and  _343
REMARK  135  A    between atoms: _343  and  _344
REMARK  136  A    between atoms: _343  and  _346
REMARK  137  A    between atoms: _349  and  _351
REMARK  138  A    between atoms: _351  and  _352
REMARK  139  A    between atoms: _355  and  _357
REMARK  140  A    between atoms: _357  and  _358
REMARK  141  A    between atoms: _357  and  _360
REMARK  142  A    between atoms: _360  and  _361
REMARK  143  A    between atoms: _366  and  _368
REMARK  144  A    between atoms: _368  and  _369
REMARK  145  A    between atoms: _368  and  _371
REMARK  146  A    between atoms: _371  and  _372
REMARK  147  A    between atoms: _372  and  _373
REMARK  148  A    between atoms: _373  and  _374
REMARK  149  A    between atoms: _374  and  _375
REMARK  150  A    between atoms: _379  and  _381
REMARK  151  A    between atoms: _381  and  _382
REMARK  152  A    between atoms: _381  and  _384
REMARK  153  A    between atoms: _384  and  _385
REMARK  154  A    between atoms: _388  and  _390
REMARK  155  A    between atoms: _390  and  _391
REMARK  156  A    between atoms: _390  and  _393
REMARK  157  A    between atoms: _393  and  _394
REMARK  158  A    between atoms: _399  and  _401
REMARK  159  A    between atoms: _401  and  _402
REMARK  160  A    between atoms: _404  and  _406
REMARK  161  A    between atoms: _406  and  _407
REMARK  162  A    between atoms: _406  and  _409
REMARK  163  A    between atoms: _409  and  _410
REMARK  164  A    between atoms: _410  and  _411
REMARK  165  A    between atoms: _411  and  _412
REMARK  166  A    between atoms: _412  and  _413
REMARK  167  A    between atoms: _417  and  _419
REMARK  168  A    between atoms: _419  and  _420
REMARK  169  A    between atoms: _419  and  _422
REMARK  170  A    between atoms: _422  and  _423
REMARK  171  A    between atoms: _423  and  _424
REMARK  172  A    between atoms: _424  and  _425
REMARK  173  A    between atoms: _434  and  _436
REMARK  174  A    between atoms: _436  and  _437
REMARK  175  A    between atoms: _436  and  _439
REMARK  176  A    between atoms: _439  and  _440
REMARK  177  A    between atoms: _445  and  _447
REMARK  178  A    between atoms: _447  and  _448
REMARK  179  A    between atoms: _447  and  _450
REMARK  180  A    between atoms: _450  and  _451
REMARK  181  A    between atoms: _456  and  _457
REMARK  182  A    between atoms: _459  and  _461
REMARK  183  A    between atoms: _461  and  _462
REMARK  184  A    between atoms: _461  and  _464
REMARK  185  A    between atoms: _464  and  _465
REMARK  186  A    between atoms: _465  and  _466
REMARK  187  A    between atoms: _466  and  _467
REMARK  188  A    between atoms: _467  and  _468
REMARK  189  A    between atoms: _472  and  _474
REMARK  190  A    between atoms: _474  and  _475
REMARK  191  A    between atoms: _474  and  _477
REMARK  192  A    between atoms: _477  and  _478
REMARK  193  A    between atoms: _483  and  _484
REMARK  194  A    between atoms: _486  and  _488
REMARK  195  A    between atoms: _488  and  _489
REMARK  196  A    between atoms: _488  and  _491
REMARK  197  A    between atoms: _491  and  _492
REMARK  198  A    between atoms: _494  and  _496
REMARK  199  A    between atoms: _496  and  _497
REMARK  200  A    between atoms: _496  and  _499
REMARK  201  A    between atoms: _499  and  _500
REMARK  202  A    between atoms: _503  and  _505
REMARK  203  A    between atoms: _505  and  _506
REMARK  204  A    between atoms: _505  and  _508
REMARK  205  A    between atoms: _508  and  _509
REMARK  206  A    between atoms: _509  and  _510
REMARK  207  A    between atoms: _513  and  _515
REMARK  208  A    between atoms: _515  and  _516
REMARK  209  A    between atoms: _519  and  _521
REMARK  210  A    between atoms: _521  and  _522
REMARK  211  A    between atoms: _521  and  _524
REMARK  212  A    between atoms: _524  and  _525
REMARK  213  A    between atoms: _527  and  _529
REMARK  214  A    between atoms: _529  and  _530
REMARK  215  A    between atoms: _532  and  _534
REMARK  216  A    between atoms: _534  and  _535
REMARK  217  A    between atoms: _534  and  _537
REMARK  218  A    between atoms: _537  and  _538
REMARK  219  A    between atoms: _541  and  _543
REMARK  220  A    between atoms: _543  and  _544
REMARK  221  A    between atoms: _546  and  _548
REMARK  222  A    between atoms: _548  and  _549
REMARK  223  A    between atoms: _548  and  _551
REMARK  224  A    between atoms: _551  and  _552
REMARK  225  A    between atoms: _557  and  _559
REMARK  226  A    between atoms: _559  and  _560
REMARK  227  A    between atoms: _559  and  _562
REMARK  228  A    between atoms: _562  and  _563
REMARK  229  A    between atoms: _563  and  _564
REMARK  230  A    between atoms: _571  and  _572
REMARK  231  A    between atoms: _572  and  _588
REMARK  232  A    between atoms: _573  and  _575
REMARK  233  A    between atoms: _575  and  _576
REMARK  234  A    between atoms: _576  and  _577
REMARK  235  A    between atoms: _581  and  _583
REMARK  236  A    between atoms: _583  and  _584
REMARK  237  A    between atoms: _583  and  _591
REMARK  238  A    between atoms: _584  and  _585
REMARK  239  A    between atoms: _585  and  _586
REMARK  240  A    between atoms: _586  and  _587
REMARK  241  A    between atoms: _587  and  _588
REMARK  242  A    between atoms: _593  and  _595
REMARK  243  A    between atoms: _595  and  _596
REMARK  244  A    between atoms: _595  and  _598
REMARK  245  A    between atoms: _598  and  _599
REMARK  246  A    between atoms: _602  and  _604
REMARK  247  A    between atoms: _604  and  _605
REMARK  248  A    between atoms: _607  and  _609
REMARK  249  A    between atoms: _609  and  _610
REMARK  250  A    between atoms: _613  and  _615
REMARK  251  A    between atoms: _615  and  _616
REMARK  252  A    between atoms: _615  and  _618
REMARK  253  A    between atoms: _618  and  _619
REMARK  254  A    between atoms: _619  and  _620
REMARK  255  A    between atoms: _620  and  _621
REMARK  256  A    between atoms: _630  and  _632
REMARK  257  A    between atoms: _632  and  _633
REMARK  258  A    between atoms: _632  and  _635
REMARK  259  A    between atoms: _635  and  _636
REMARK  260  A    between atoms: _641  and  _642
REMARK                            x       y       z     vdW  Elec       q    Type
REMARK                         _______ _______ _______ _____ _____    ______ ____
ROOT
ATOM      1  O   HOH     1      36.894  19.666  37.088  0.00  0.00    +0.000 OA
ENDROOT
TORSDOF 0
REMARK  Name = ../refined-set-2016/3g2l/3g2l_pocket.pdb
REMARK  260 active torsions:
REMARK  status: ('A' for Active; 'I' for Inactive)
REMARK    1  A    between atoms: _1  and  _3
REMARK    2  A    between atoms: _3  and  _4
REMARK    3  A    between atoms: _3  and  _6
REMARK    4  A    between atoms: _6  and  _7
REMARK    5  A    between atoms: _12  and  _13
REMARK    6  A    between atoms: _15  and  _17
REMARK    7  A    between atoms: _17  and  _18
REMARK    8  A    between atoms: _17  and  _20
REMARK    9  A    between atoms: _20  and  _21
REMARK   10  A    between atoms: _21  and  _22
REMARK   11  A    between atoms: _25  and  _27
REMARK   12  A    between atoms: _27  and  _28
REMARK   13  A    between atoms: _27  and  _30
REMARK   14  A    between atoms: _30  and  _31
REMARK   15  A    between atoms: _36  and  _38
REMARK   16  A    between atoms: _38  and  _39
REMARK   17  A    between atoms: _41  and  _43
REMARK   18  A    between atoms: _43  and  _44
REMARK   19  A    between atoms: _46  and  _48
REMARK   20  A    between atoms: _48  and  _49
REMARK   21  A    between atoms: _48  and  _51
REMARK   22  A    between atoms: _51  and  _52
REMARK   23  A    between atoms: _55  and  _57
REMARK   24  A    between atoms: _57  and  _58
REMARK   25  A    between atoms: _60  and  _62
REMARK   26  A    between atoms: _62  and  _63
REMARK   27  A    between atoms: _62  and  _65
REMARK   28  A    between atoms: _65  and  _66
REMARK   29  A    between atoms: _66  and  _67
REMARK   30  A    between atoms: _67  and  _68
REMARK   31  A    between atoms: _77  and  _79
REMARK   32  A    between atoms: _79  and  _80
REMARK   33  A    between atoms: _79  and  _82
REMARK   34  A    between atoms: _82  and  _83
REMARK   35  A    between atoms: _86  and  _88
REMARK   36  A    between atoms: _88  and  _89
REMARK   37  A    between atoms: _92  and  _94
REMARK   38  A    between atoms: _94  and  _95
REMARK   39  A    between atoms: _94  and  _97
REMARK   40  A    between atoms: _97  and  _98
REMARK   41  A    between atoms: _104  and  _106
REMARK   42  A    between atoms: _106  and  _107
REMARK   43  A    between atoms: _106  and  _109
REMARK   44  A    between atoms: _109  and  _110
REMARK   45  A    between atoms: _115  and  _117
REMARK   46  A    between atoms: _117  and  _118
REMARK   47  A    between atoms: _117  and  _120
REMARK   48  A    between atoms: _120  and  _121
REMARK   49  A    between atoms: _124  and  _126
REMARK   50  A    between atoms: _126  and  _127
REMARK   51  A    between atoms: _126  and  _129
REMARK   52  A    between atoms: _129  and  _130
REMARK   53  A    between atoms: _135  and  _137
REMARK   54  A    between atoms: _137  and  _138
REMARK   55  A    between atoms: _137  and  _140
REMARK   56  A    between atoms: _140  and  _141
REMARK   57  A    between atoms: _147  and  _149
REMARK   58  A    between atoms: _149  and  _150
REMARK   59  A    between atoms: _149  and  _152
REMARK   60  A    between atoms: _152  and  _153
REMARK   61  A    between atoms: _159  and  _161
REMARK   62  A    between atoms: _161  and  _162
REMARK   63  A    between atoms: _161  and  _164
REMARK   64  A    between atoms: _164  and  _165
REMARK   65  A    between atoms: _165  and  _166
REMARK   66  A    between atoms: _169  and  _171
REMARK   67  A    between atoms: _171  and  _172
REMARK   68  A    between atoms: _171  and  _174
REMARK   69  A    between atoms: _174  and  _175
REMARK   70  A    between atoms: _175  and  _176
REMARK   71  A    between atoms: _176  and  _177
REMARK   72  A    between atoms: _186  and  _188
REMARK   73  A    between atoms: _188  and  _189
REMARK   74  A    between atoms: _188  and  _191
REMARK   75  A    between atoms: _191  and  _192
REMARK   76  A    between atoms: _197  and  _199
REMARK   77  A    between atoms: _199  and  _200
REMARK   78  A    between atoms: _199  and  _202
REMARK   79  A    between atoms: _202  and  _203
REMARK   80  A    between atoms: _206  and  _208
REMARK   81  A    between atoms: _208  and  _209
REMARK   82  A    between atoms: _208  and  _211
REMARK   83  A    between atoms: _211  and  _212
REMARK   84  A    between atoms: _215  and  _217
REMARK   85  A    between atoms: _217  and  _218
REMARK   86  A    between atoms: _217  and  _220
REMARK   87  A    between atoms: _220  and  _221
REMARK   88  A    between atoms: _226  and  _228
REMARK   89  A    between atoms: _228  and  _229
REMARK   90  A    between atoms: _228  and  _231
REMARK   91  A    between atoms: _231  and  _232
REMARK   92  A    between atoms: _235  and  _237
REMARK   93  A    between atoms: _237  and  _238
REMARK   94  A    between atoms: _237  and  _240
REMARK   95  A    between atoms: _240  and  _241
REMARK   96  A    between atoms: _246  and  _248
REMARK   97  A    between atoms: _248  and  _249
REMARK   98  A    between atoms: _248  and  _251
REMARK   99  A    between atoms: _251  and  _252
REMARK  100  A    between atoms: _257  and  _259
REMARK  101  A    between atoms: _259  and  _260
REMARK  102  A    between atoms: _259  and  _262
REMARK  103  A    between atoms: _262  and  _263
REMARK  104  A    between atoms: _266  and  _268
REMARK  105  A    between atoms: _268  and  _269
REMARK  106  A    between atoms: _268  and  _271
REMARK  107  A    between atoms: _274  and  _276
REMARK  108  A    between atoms: _276  and  _277
REMARK  109  A    between atoms: _276  and  _279
REMARK  110  A    between atoms: _279  and  _280
REMARK  111  A    between atoms: _284  and  _285
REMARK  112  A    between atoms: _290  and  _292
REMARK  113  A    between atoms: _292  and  _293
REMARK  114  A    between atoms: _292  and  _295
REMARK  115  A    between atoms: _295  and  _296
REMARK  116  A    between atoms: _296  and  _297
REMARK  117  A    between atoms: _300  and  _302
REMARK  118  A    between atoms: _302  and  _303
REMARK  119  A    between atoms: _306  and  _308
REMARK  120  A    between atoms: _308  and  _309
REMARK  121  A    between atoms: _308  and  _311
REMARK  122  A    between atoms: _311  and  _312
REMARK  123  A    between atoms: _315  and  _317
REMARK  124  A    between atoms: _317  and  _318
REMARK  125  A    between atoms: _317  and  _320
REMARK  126  A    between atoms: _320  and  _321
REMARK  127  A    between atoms: _321  and  _322
REMARK  128  A    between atoms: _325  and  _327
REMARK  129  A    between atoms: _327  and  _328
REMARK  130  A    between atoms: _327  and  _330
REMARK  131  A    between atoms: _330  and  _331
REMARK  132  A    between atoms: _336  and  _338
REMARK  133  A    between atoms: _338  and  _339
REMARK  134  A    between atoms: _341  and  _343
REMARK  135  A    between atoms: _343  and  _344
REMARK  136  A    between atoms: _343  and  _346
REMARK  137  A    between atoms: _349  and  _351
REMARK  138  A    between atoms: _351  and  _352
REMARK  139  A    between atoms: _355  and  _357
REMARK  140  A    between atoms: _357  and  _358
REMARK  141  A    between atoms: _357  and  _360
REMARK  142  A    between atoms: _360  and  _361
REMARK  143  A    between atoms: _366  and  _368
REMARK  144  A    between atoms: _368  and  _369
REMARK  145  A    between atoms: _368  and  _371
REMARK  146  A    between atoms: _371  and  _372
REMARK  147  A    between atoms: _372  and  _373
REMARK  148  A    between atoms: _373  and  _374
REMARK  149  A    between atoms: _374  and  _375
REMARK  150  A    between atoms: _379  and  _381
REMARK  151  A    between atoms: _381  and  _382
REMARK  152  A    between atoms: _381  and  _384
REMARK  153  A    between atoms: _384  and  _385
REMARK  154  A    between atoms: _388  and  _390
REMARK  155  A    between atoms: _390  and  _391
REMARK  156  A    between atoms: _390  and  _393
REMARK  157  A    between atoms: _393  and  _394
REMARK  158  A    between atoms: _399  and  _401
REMARK  159  A    between atoms: _401  and  _402
REMARK  160  A    between atoms: _404  and  _406
REMARK  161  A    between atoms: _406  and  _407
REMARK  162  A    between atoms: _406  and  _409
REMARK  163  A    between atoms: _409  and  _410
REMARK  164  A    between atoms: _410  and  _411
REMARK  165  A    between atoms: _411  and  _412
REMARK  166  A    between atoms: _412  and  _413
REMARK  167  A    between atoms: _417  and  _419
REMARK  168  A    between atoms: _419  and  _420
REMARK  169  A    between atoms: _419  and  _422
REMARK  170  A    between atoms: _422  and  _423
REMARK  171  A    between atoms: _423  and  _424
REMARK  172  A    between atoms: _424  and  _425
REMARK  173  A    between atoms: _434  and  _436
REMARK  174  A    between atoms: _436  and  _437
REMARK  175  A    between atoms: _436  and  _439
REMARK  176  A    between atoms: _439  and  _440
REMARK  177  A    between atoms: _445  and  _447
REMARK  178  A    between atoms: _447  and  _448
REMARK  179  A    between atoms: _447  and  _450
REMARK  180  A    between atoms: _450  and  _451
REMARK  181  A    between atoms: _456  and  _457
REMARK  182  A    between atoms: _459  and  _461
REMARK  183  A    between atoms: _461  and  _462
REMARK  184  A    between atoms: _461  and  _464
REMARK  185  A    between atoms: _464  and  _465
REMARK  186  A    between atoms: _465  and  _466
REMARK  187  A    between atoms: _466  and  _467
REMARK  188  A    between atoms: _467  and  _468
REMARK  189  A    between atoms: _472  and  _474
REMARK  190  A    between atoms: _474  and  _475
REMARK  191  A    between atoms: _474  and  _477
REMARK  192  A    between atoms: _477  and  _478
REMARK  193  A    between atoms: _483  and  _484
REMARK  194  A    between atoms: _486  and  _488
REMARK  195  A    between atoms: _488  and  _489
REMARK  196  A    between atoms: _488  and  _491
REMARK  197  A    between atoms: _491  and  _492
REMARK  198  A    between atoms: _494  and  _496
REMARK  199  A    between atoms: _496  and  _497
REMARK  200  A    between atoms: _496  and  _499
REMARK  201  A    between atoms: _499  and  _500
REMARK  202  A    between atoms: _503  and  _505
REMARK  203  A    between atoms: _505  and  _506
REMARK  204  A    between atoms: _505  and  _508
REMARK  205  A    between atoms: _508  and  _509
REMARK  206  A    between atoms: _509  and  _510
REMARK  207  A    between atoms: _513  and  _515
REMARK  208  A    between atoms: _515  and  _516
REMARK  209  A    between atoms: _519  and  _521
REMARK  210  A    between atoms: _521  and  _522
REMARK  211  A    between atoms: _521  and  _524
REMARK  212  A    between atoms: _524  and  _525
REMARK  213  A    between atoms: _527  and  _529
REMARK  214  A    between atoms: _529  and  _530
REMARK  215  A    between atoms: _532  and  _534
REMARK  216  A    between atoms: _534  and  _535
REMARK  217  A    between atoms: _534  and  _537
REMARK  218  A    between atoms: _537  and  _538
REMARK  219  A    between atoms: _541  and  _543
REMARK  220  A    between atoms: _543  and  _544
REMARK  221  A    between atoms: _546  and  _548
REMARK  222  A    between atoms: _548  and  _549
REMARK  223  A    between atoms: _548  and  _551
REMARK  224  A    between atoms: _551  and  _552
REMARK  225  A    between atoms: _557  and  _559
REMARK  226  A    between atoms: _559  and  _560
REMARK  227  A    between atoms: _559  and  _562
REMARK  228  A    between atoms: _562  and  _563
REMARK  229  A    between atoms: _563  and  _564
REMARK  230  A    between atoms: _571  and  _572
REMARK  231  A    between atoms: _572  and  _588
REMARK  232  A    between atoms: _573  and  _575
REMARK  233  A    between atoms: _575  and  _576
REMARK  234  A    between atoms: _576  and  _577
REMARK  235  A    between atoms: _581  and  _583
REMARK  236  A    between atoms: _583  and  _584
REMARK  237  A    between atoms: _583  and  _591
REMARK  238  A    between atoms: _584  and  _585
REMARK  239  A    between atoms: _585  and  _586
REMARK  240  A    between atoms: _586  and  _587
REMARK  241  A    between atoms: _587  and  _588
REMARK  242  A    between atoms: _593  and  _595
REMARK  243  A    between atoms: _595  and  _596
REMARK  244  A    between atoms: _595  and  _598
REMARK  245  A    between atoms: _598  and  _599
REMARK  246  A    between atoms: _602  and  _604
REMARK  247  A    between atoms: _604  and  _605
REMARK  248  A    between atoms: _607  and  _609
REMARK  249  A    between atoms: _609  and  _610
REMARK  250  A    between atoms: _613  and  _615
REMARK  251  A    between atoms: _615  and  _616
REMARK  252  A    between atoms: _615  and  _618
REMARK  253  A    between atoms: _618  and  _619
REMARK  254  A    between atoms: _619  and  _620
REMARK  255  A    between atoms: _620  and  _621
REMARK  256  A    between atoms: _630  and  _632
REMARK  257  A    between atoms: _632  and  _633
REMARK  258  A    between atoms: _632  and  _635
REMARK  259  A    between atoms: _635  and  _636
REMARK  260  A    between atoms: _641  and  _642
REMARK                            x       y       z     vdW  Elec       q    Type
REMARK                         _______ _______ _______ _____ _____    ______ ____
ROOT
ATOM      1  O   HOH     1      39.491  24.370  31.324  0.00  0.00    +0.000 OA
ENDROOT
TORSDOF 0
REMARK  Name = ../refined-set-2016/3g2l/3g2l_pocket.pdb
REMARK  260 active torsions:
REMARK  status: ('A' for Active; 'I' for Inactive)
REMARK    1  A    between atoms: _1  and  _3
REMARK    2  A    between atoms: _3  and  _4
REMARK    3  A    between atoms: _3  and  _6
REMARK    4  A    between atoms: _6  and  _7
REMARK    5  A    between atoms: _12  and  _13
REMARK    6  A    between atoms: _15  and  _17
REMARK    7  A    between atoms: _17  and  _18
REMARK    8  A    between atoms: _17  and  _20
REMARK    9  A    between atoms: _20  and  _21
REMARK   10  A    between atoms: _21  and  _22
REMARK   11  A    between atoms: _25  and  _27
REMARK   12  A    between atoms: _27  and  _28
REMARK   13  A    between atoms: _27  and  _30
REMARK   14  A    between atoms: _30  and  _31
REMARK   15  A    between atoms: _36  and  _38
REMARK   16  A    between atoms: _38  and  _39
REMARK   17  A    between atoms: _41  and  _43
REMARK   18  A    between atoms: _43  and  _44
REMARK   19  A    between atoms: _46  and  _48
REMARK   20  A    between atoms: _48  and  _49
REMARK   21  A    between atoms: _48  and  _51
REMARK   22  A    between atoms: _51  and  _52
REMARK   23  A    between atoms: _55  and  _57
REMARK   24  A    between atoms: _57  and  _58
REMARK   25  A    between atoms: _60  and  _62
REMARK   26  A    between atoms: _62  and  _63
REMARK   27  A    between atoms: _62  and  _65
REMARK   28  A    between atoms: _65  and  _66
REMARK   29  A    between atoms: _66  and  _67
REMARK   30  A    between atoms: _67  and  _68
REMARK   31  A    between atoms: _77  and  _79
REMARK   32  A    between atoms: _79  and  _80
REMARK   33  A    between atoms: _79  and  _82
REMARK   34  A    between atoms: _82  and  _83
REMARK   35  A    between atoms: _86  and  _88
REMARK   36  A    between atoms: _88  and  _89
REMARK   37  A    between atoms: _92  and  _94
REMARK   38  A    between atoms: _94  and  _95
REMARK   39  A    between atoms: _94  and  _97
REMARK   40  A    between atoms: _97  and  _98
REMARK   41  A    between atoms: _104  and  _106
REMARK   42  A    between atoms: _106  and  _107
REMARK   43  A    between atoms: _106  and  _109
REMARK   44  A    between atoms: _109  and  _110
REMARK   45  A    between atoms: _115  and  _117
REMARK   46  A    between atoms: _117  and  _118
REMARK   47  A    between atoms: _117  and  _120
REMARK   48  A    between atoms: _120  and  _121
REMARK   49  A    between atoms: _124  and  _126
REMARK   50  A    between atoms: _126  and  _127
REMARK   51  A    between atoms: _126  and  _129
REMARK   52  A    between atoms: _129  and  _130
REMARK   53  A    between atoms: _135  and  _137
REMARK   54  A    between atoms: _137  and  _138
REMARK   55  A    between atoms: _137  and  _140
REMARK   56  A    between atoms: _140  and  _141
REMARK   57  A    between atoms: _147  and  _149
REMARK   58  A    between atoms: _149  and  _150
REMARK   59  A    between atoms: _149  and  _152
REMARK   60  A    between atoms: _152  and  _153
REMARK   61  A    between atoms: _159  and  _161
REMARK   62  A    between atoms: _161  and  _162
REMARK   63  A    between atoms: _161  and  _164
REMARK   64  A    between atoms: _164  and  _165
REMARK   65  A    between atoms: _165  and  _166
REMARK   66  A    between atoms: _169  and  _171
REMARK   67  A    between atoms: _171  and  _172
REMARK   68  A    between atoms: _171  and  _174
REMARK   69  A    between atoms: _174  and  _175
REMARK   70  A    between atoms: _175  and  _176
REMARK   71  A    between atoms: _176  and  _177
REMARK   72  A    between atoms: _186  and  _188
REMARK   73  A    between atoms: _188  and  _189
REMARK   74  A    between atoms: _188  and  _191
REMARK   75  A    between atoms: _191  and  _192
REMARK   76  A    between atoms: _197  and  _199
REMARK   77  A    between atoms: _199  and  _200
REMARK   78  A    between atoms: _199  and  _202
REMARK   79  A    between atoms: _202  and  _203
REMARK   80  A    between atoms: _206  and  _208
REMARK   81  A    between atoms: _208  and  _209
REMARK   82  A    between atoms: _208  and  _211
REMARK   83  A    between atoms: _211  and  _212
REMARK   84  A    between atoms: _215  and  _217
REMARK   85  A    between atoms: _217  and  _218
REMARK   86  A    between atoms: _217  and  _220
REMARK   87  A    between atoms: _220  and  _221
REMARK   88  A    between atoms: _226  and  _228
REMARK   89  A    between atoms: _228  and  _229
REMARK   90  A    between atoms: _228  and  _231
REMARK   91  A    between atoms: _231  and  _232
REMARK   92  A    between atoms: _235  and  _237
REMARK   93  A    between atoms: _237  and  _238
REMARK   94  A    between atoms: _237  and  _240
REMARK   95  A    between atoms: _240  and  _241
REMARK   96  A    between atoms: _246  and  _248
REMARK   97  A    between atoms: _248  and  _249
REMARK   98  A    between atoms: _248  and  _251
REMARK   99  A    between atoms: _251  and  _252
REMARK  100  A    between atoms: _257  and  _259
REMARK  101  A    between atoms: _259  and  _260
REMARK  102  A    between atoms: _259  and  _262
REMARK  103  A    between atoms: _262  and  _263
REMARK  104  A    between atoms: _266  and  _268
REMARK  105  A    between atoms: _268  and  _269
REMARK  106  A    between atoms: _268  and  _271
REMARK  107  A    between atoms: _274  and  _276
REMARK  108  A    between atoms: _276  and  _277
REMARK  109  A    between atoms: _276  and  _279
REMARK  110  A    between atoms: _279  and  _280
REMARK  111  A    between atoms: _284  and  _285
REMARK  112  A    between atoms: _290  and  _292
REMARK  113  A    between atoms: _292  and  _293
REMARK  114  A    between atoms: _292  and  _295
REMARK  115  A    between atoms: _295  and  _296
REMARK  116  A    between atoms: _296  and  _297
REMARK  117  A    between atoms: _300  and  _302
REMARK  118  A    between atoms: _302  and  _303
REMARK  119  A    between atoms: _306  and  _308
REMARK  120  A    between atoms: _308  and  _309
REMARK  121  A    between atoms: _308  and  _311
REMARK  122  A    between atoms: _311  and  _312
REMARK  123  A    between atoms: _315  and  _317
REMARK  124  A    between atoms: _317  and  _318
REMARK  125  A    between atoms: _317  and  _320
REMARK  126  A    between atoms: _320  and  _321
REMARK  127  A    between atoms: _321  and  _322
REMARK  128  A    between atoms: _325  and  _327
REMARK  129  A    between atoms: _327  and  _328
REMARK  130  A    between atoms: _327  and  _330
REMARK  131  A    between atoms: _330  and  _331
REMARK  132  A    between atoms: _336  and  _338
REMARK  133  A    between atoms: _338  and  _339
REMARK  134  A    between atoms: _341  and  _343
REMARK  135  A    between atoms: _343  and  _344
REMARK  136  A    between atoms: _343  and  _346
REMARK  137  A    between atoms: _349  and  _351
REMARK  138  A    between atoms: _351  and  _352
REMARK  139  A    between atoms: _355  and  _357
REMARK  140  A    between atoms: _357  and  _358
REMARK  141  A    between atoms: _357  and  _360
REMARK  142  A    between atoms: _360  and  _361
REMARK  143  A    between atoms: _366  and  _368
REMARK  144  A    between atoms: _368  and  _369
REMARK  145  A    between atoms: _368  and  _371
REMARK  146  A    between atoms: _371  and  _372
REMARK  147  A    between atoms: _372  and  _373
REMARK  148  A    between atoms: _373  and  _374
REMARK  149  A    between atoms: _374  and  _375
REMARK  150  A    between atoms: _379  and  _381
REMARK  151  A    between atoms: _381  and  _382
REMARK  152  A    between atoms: _381  and  _384
REMARK  153  A    between atoms: _384  and  _385
REMARK  154  A    between atoms: _388  and  _390
REMARK  155  A    between atoms: _390  and  _391
REMARK  156  A    between atoms: _390  and  _393
REMARK  157  A    between atoms: _393  and  _394
REMARK  158  A    between atoms: _399  and  _401
REMARK  159  A    between atoms: _401  and  _402
REMARK  160  A    between atoms: _404  and  _406
REMARK  161  A    between atoms: _406  and  _407
REMARK  162  A    between atoms: _406  and  _409
REMARK  163  A    between atoms: _409  and  _410
REMARK  164  A    between atoms: _410  and  _411
REMARK  165  A    between atoms: _411  and  _412
REMARK  166  A    between atoms: _412  and  _413
REMARK  167  A    between atoms: _417  and  _419
REMARK  168  A    between atoms: _419  and  _420
REMARK  169  A    between atoms: _419  and  _422
REMARK  170  A    between atoms: _422  and  _423
REMARK  171  A    between atoms: _423  and  _424
REMARK  172  A    between atoms: _424  and  _425
REMARK  173  A    between atoms: _434  and  _436
REMARK  174  A    between atoms: _436  and  _437
REMARK  175  A    between atoms: _436  and  _439
REMARK  176  A    between atoms: _439  and  _440
REMARK  177  A    between atoms: _445  and  _447
REMARK  178  A    between atoms: _447  and  _448
REMARK  179  A    between atoms: _447  and  _450
REMARK  180  A    between atoms: _450  and  _451
REMARK  181  A    between atoms: _456  and  _457
REMARK  182  A    between atoms: _459  and  _461
REMARK  183  A    between atoms: _461  and  _462
REMARK  184  A    between atoms: _461  and  _464
REMARK  185  A    between atoms: _464  and  _465
REMARK  186  A    between atoms: _465  and  _466
REMARK  187  A    between atoms: _466  and  _467
REMARK  188  A    between atoms: _467  and  _468
REMARK  189  A    between atoms: _472  and  _474
REMARK  190  A    between atoms: _474  and  _475
REMARK  191  A    between atoms: _474  and  _477
REMARK  192  A    between atoms: _477  and  _478
REMARK  193  A    between atoms: _483  and  _484
REMARK  194  A    between atoms: _486  and  _488
REMARK  195  A    between atoms: _488  and  _489
REMARK  196  A    between atoms: _488  and  _491
REMARK  197  A    between atoms: _491  and  _492
REMARK  198  A    between atoms: _494  and  _496
REMARK  199  A    between atoms: _496  and  _497
REMARK  200  A    between atoms: _496  and  _499
REMARK  201  A    between atoms: _499  and  _500
REMARK  202  A    between atoms: _503  and  _505
REMARK  203  A    between atoms: _505  and  _506
REMARK  204  A    between atoms: _505  and  _508
REMARK  205  A    between atoms: _508  and  _509
REMARK  206  A    between atoms: _509  and  _510
REMARK  207  A    between atoms: _513  and  _515
REMARK  208  A    between atoms: _515  and  _516
REMARK  209  A    between atoms: _519  and  _521
REMARK  210  A    between atoms: _521  and  _522
REMARK  211  A    between atoms: _521  and  _524
REMARK  212  A    between atoms: _524  and  _525
REMARK  213  A    between atoms: _527  and  _529
REMARK  214  A    between atoms: _529  and  _530
REMARK  215  A    between atoms: _532  and  _534
REMARK  216  A    between atoms: _534  and  _535
REMARK  217  A    between atoms: _534  and  _537
REMARK  218  A    between atoms: _537  and  _538
REMARK  219  A    between atoms: _541  and  _543
REMARK  220  A    between atoms: _543  and  _544
REMARK  221  A    between atoms: _546  and  _548
REMARK  222  A    between atoms: _548  and  _549
REMARK  223  A    between atoms: _548  and  _551
REMARK  224  A    between atoms: _551  and  _552
REMARK  225  A    between atoms: _557  and  _559
REMARK  226  A    between atoms: _559  and  _560
REMARK  227  A    between atoms: _559  and  _562
REMARK  228  A    between atoms: _562  and  _563
REMARK  229  A    between atoms: _563  and  _564
REMARK  230  A    between atoms: _571  and  _572
REMARK  231  A    between atoms: _572  and  _588
REMARK  232  A    between atoms: _573  and  _575
REMARK  233  A    between atoms: _575  and  _576
REMARK  234  A    between atoms: _576  and  _577
REMARK  235  A    between atoms: _581  and  _583
REMARK  236  A    between atoms: _583  and  _584
REMARK  237  A    between atoms: _583  and  _591
REMARK  238  A    between atoms: _584  and  _585
REMARK  239  A    between atoms: _585  and  _586
REMARK  240  A    between atoms: _586  and  _587
REMARK  241  A    between atoms: _587  and  _588
REMARK  242  A    between atoms: _593  and  _595
REMARK  243  A    between atoms: _595  and  _596
REMARK  244  A    between atoms: _595  and  _598
REMARK  245  A    between atoms: _598  and  _599
REMARK  246  A    between atoms: _602  and  _604
REMARK  247  A    between atoms: _604  and  _605
REMARK  248  A    between atoms: _607  and  _609
REMARK  249  A    between atoms: _609  and  _610
REMARK  250  A    between atoms: _613  and  _615
REMARK  251  A    between atoms: _615  and  _616
REMARK  252  A    between atoms: _615  and  _618
REMARK  253  A    between atoms: _618  and  _619
REMARK  254  A    between atoms: _619  and  _620
REMARK  255  A    between atoms: _620  and  _621
REMARK  256  A    between atoms: _630  and  _632
REMARK  257  A    between atoms: _632  and  _633
REMARK  258  A    between atoms: _632  and  _635
REMARK  259  A    between atoms: _635  and  _636
REMARK  260  A    between atoms: _641  and  _642
REMARK                            x       y       z     vdW  Elec       q    Type
REMARK                         _______ _______ _______ _____ _____    ______ ____
ROOT
ATOM      1  O   HOH     1      44.444  23.020  32.216  0.00  0.00    +0.000 OA
ENDROOT
TORSDOF 0
REMARK  Name = ../refined-set-2016/3g2l/3g2l_pocket.pdb
REMARK  260 active torsions:
REMARK  status: ('A' for Active; 'I' for Inactive)
REMARK    1  A    between atoms: _1  and  _3
REMARK    2  A    between atoms: _3  and  _4
REMARK    3  A    between atoms: _3  and  _6
REMARK    4  A    between atoms: _6  and  _7
REMARK    5  A    between atoms: _12  and  _13
REMARK    6  A    between atoms: _15  and  _17
REMARK    7  A    between atoms: _17  and  _18
REMARK    8  A    between atoms: _17  and  _20
REMARK    9  A    between atoms: _20  and  _21
REMARK   10  A    between atoms: _21  and  _22
REMARK   11  A    between atoms: _25  and  _27
REMARK   12  A    between atoms: _27  and  _28
REMARK   13  A    between atoms: _27  and  _30
REMARK   14  A    between atoms: _30  and  _31
REMARK   15  A    between atoms: _36  and  _38
REMARK   16  A    between atoms: _38  and  _39
REMARK   17  A    between atoms: _41  and  _43
REMARK   18  A    between atoms: _43  and  _44
REMARK   19  A    between atoms: _46  and  _48
REMARK   20  A    between atoms: _48  and  _49
REMARK   21  A    between atoms: _48  and  _51
REMARK   22  A    between atoms: _51  and  _52
REMARK   23  A    between atoms: _55  and  _57
REMARK   24  A    between atoms: _57  and  _58
REMARK   25  A    between atoms: _60  and  _62
REMARK   26  A    between atoms: _62  and  _63
REMARK   27  A    between atoms: _62  and  _65
REMARK   28  A    between atoms: _65  and  _66
REMARK   29  A    between atoms: _66  and  _67
REMARK   30  A    between atoms: _67  and  _68
REMARK   31  A    between atoms: _77  and  _79
REMARK   32  A    between atoms: _79  and  _80
REMARK   33  A    between atoms: _79  and  _82
REMARK   34  A    between atoms: _82  and  _83
REMARK   35  A    between atoms: _86  and  _88
REMARK   36  A    between atoms: _88  and  _89
REMARK   37  A    between atoms: _92  and  _94
REMARK   38  A    between atoms: _94  and  _95
REMARK   39  A    between atoms: _94  and  _97
REMARK   40  A    between atoms: _97  and  _98
REMARK   41  A    between atoms: _104  and  _106
REMARK   42  A    between atoms: _106  and  _107
REMARK   43  A    between atoms: _106  and  _109
REMARK   44  A    between atoms: _109  and  _110
REMARK   45  A    between atoms: _115  and  _117
REMARK   46  A    between atoms: _117  and  _118
REMARK   47  A    between atoms: _117  and  _120
REMARK   48  A    between atoms: _120  and  _121
REMARK   49  A    between atoms: _124  and  _126
REMARK   50  A    between atoms: _126  and  _127
REMARK   51  A    between atoms: _126  and  _129
REMARK   52  A    between atoms: _129  and  _130
REMARK   53  A    between atoms: _135  and  _137
REMARK   54  A    between atoms: _137  and  _138
REMARK   55  A    between atoms: _137  and  _140
REMARK   56  A    between atoms: _140  and  _141
REMARK   57  A    between atoms: _147  and  _149
REMARK   58  A    between atoms: _149  and  _150
REMARK   59  A    between atoms: _149  and  _152
REMARK   60  A    between atoms: _152  and  _153
REMARK   61  A    between atoms: _159  and  _161
REMARK   62  A    between atoms: _161  and  _162
REMARK   63  A    between atoms: _161  and  _164
REMARK   64  A    between atoms: _164  and  _165
REMARK   65  A    between atoms: _165  and  _166
REMARK   66  A    between atoms: _169  and  _171
REMARK   67  A    between atoms: _171  and  _172
REMARK   68  A    between atoms: _171  and  _174
REMARK   69  A    between atoms: _174  and  _175
REMARK   70  A    between atoms: _175  and  _176
REMARK   71  A    between atoms: _176  and  _177
REMARK   72  A    between atoms: _186  and  _188
REMARK   73  A    between atoms: _188  and  _189
REMARK   74  A    between atoms: _188  and  _191
REMARK   75  A    between atoms: _191  and  _192
REMARK   76  A    between atoms: _197  and  _199
REMARK   77  A    between atoms: _199  and  _200
REMARK   78  A    between atoms: _199  and  _202
REMARK   79  A    between atoms: _202  and  _203
REMARK   80  A    between atoms: _206  and  _208
REMARK   81  A    between atoms: _208  and  _209
REMARK   82  A    between atoms: _208  and  _211
REMARK   83  A    between atoms: _211  and  _212
REMARK   84  A    between atoms: _215  and  _217
REMARK   85  A    between atoms: _217  and  _218
REMARK   86  A    between atoms: _217  and  _220
REMARK   87  A    between atoms: _220  and  _221
REMARK   88  A    between atoms: _226  and  _228
REMARK   89  A    between atoms: _228  and  _229
REMARK   90  A    between atoms: _228  and  _231
REMARK   91  A    between atoms: _231  and  _232
REMARK   92  A    between atoms: _235  and  _237
REMARK   93  A    between atoms: _237  and  _238
REMARK   94  A    between atoms: _237  and  _240
REMARK   95  A    between atoms: _240  and  _241
REMARK   96  A    between atoms: _246  and  _248
REMARK   97  A    between atoms: _248  and  _249
REMARK   98  A    between atoms: _248  and  _251
REMARK   99  A    between atoms: _251  and  _252
REMARK  100  A    between atoms: _257  and  _259
REMARK  101  A    between atoms: _259  and  _260
REMARK  102  A    between atoms: _259  and  _262
REMARK  103  A    between atoms: _262  and  _263
REMARK  104  A    between atoms: _266  and  _268
REMARK  105  A    between atoms: _268  and  _269
REMARK  106  A    between atoms: _268  and  _271
REMARK  107  A    between atoms: _274  and  _276
REMARK  108  A    between atoms: _276  and  _277
REMARK  109  A    between atoms: _276  and  _279
REMARK  110  A    between atoms: _279  and  _280
REMARK  111  A    between atoms: _284  and  _285
REMARK  112  A    between atoms: _290  and  _292
REMARK  113  A    between atoms: _292  and  _293
REMARK  114  A    between atoms: _292  and  _295
REMARK  115  A    between atoms: _295  and  _296
REMARK  116  A    between atoms: _296  and  _297
REMARK  117  A    between atoms: _300  and  _302
REMARK  118  A    between atoms: _302  and  _303
REMARK  119  A    between atoms: _306  and  _308
REMARK  120  A    between atoms: _308  and  _309
REMARK  121  A    between atoms: _308  and  _311
REMARK  122  A    between atoms: _311  and  _312
REMARK  123  A    between atoms: _315  and  _317
REMARK  124  A    between atoms: _317  and  _318
REMARK  125  A    between atoms: _317  and  _320
REMARK  126  A    between atoms: _320  and  _321
REMARK  127  A    between atoms: _321  and  _322
REMARK  128  A    between atoms: _325  and  _327
REMARK  129  A    between atoms: _327  and  _328
REMARK  130  A    between atoms: _327  and  _330
REMARK  131  A    between atoms: _330  and  _331
REMARK  132  A    between atoms: _336  and  _338
REMARK  133  A    between atoms: _338  and  _339
REMARK  134  A    between atoms: _341  and  _343
REMARK  135  A    between atoms: _343  and  _344
REMARK  136  A    between atoms: _343  and  _346
REMARK  137  A    between atoms: _349  and  _351
REMARK  138  A    between atoms: _351  and  _352
REMARK  139  A    between atoms: _355  and  _357
REMARK  140  A    between atoms: _357  and  _358
REMARK  141  A    between atoms: _357  and  _360
REMARK  142  A    between atoms: _360  and  _361
REMARK  143  A    between atoms: _366  and  _368
REMARK  144  A    between atoms: _368  and  _369
REMARK  145  A    between atoms: _368  and  _371
REMARK  146  A    between atoms: _371  and  _372
REMARK  147  A    between atoms: _372  and  _373
REMARK  148  A    between atoms: _373  and  _374
REMARK  149  A    between atoms: _374  and  _375
REMARK  150  A    between atoms: _379  and  _381
REMARK  151  A    between atoms: _381  and  _382
REMARK  152  A    between atoms: _381  and  _384
REMARK  153  A    between atoms: _384  and  _385
REMARK  154  A    between atoms: _388  and  _390
REMARK  155  A    between atoms: _390  and  _391
REMARK  156  A    between atoms: _390  and  _393
REMARK  157  A    between atoms: _393  and  _394
REMARK  158  A    between atoms: _399  and  _401
REMARK  159  A    between atoms: _401  and  _402
REMARK  160  A    between atoms: _404  and  _406
REMARK  161  A    between atoms: _406  and  _407
REMARK  162  A    between atoms: _406  and  _409
REMARK  163  A    between atoms: _409  and  _410
REMARK  164  A    between atoms: _410  and  _411
REMARK  165  A    between atoms: _411  and  _412
REMARK  166  A    between atoms: _412  and  _413
REMARK  167  A    between atoms: _417  and  _419
REMARK  168  A    between atoms: _419  and  _420
REMARK  169  A    between atoms: _419  and  _422
REMARK  170  A    between atoms: _422  and  _423
REMARK  171  A    between atoms: _423  and  _424
REMARK  172  A    between atoms: _424  and  _425
REMARK  173  A    between atoms: _434  and  _436
REMARK  174  A    between atoms: _436  and  _437
REMARK  175  A    between atoms: _436  and  _439
REMARK  176  A    between atoms: _439  and  _440
REMARK  177  A    between atoms: _445  and  _447
REMARK  178  A    between atoms: _447  and  _448
REMARK  179  A    between atoms: _447  and  _450
REMARK  180  A    between atoms: _450  and  _451
REMARK  181  A    between atoms: _456  and  _457
REMARK  182  A    between atoms: _459  and  _461
REMARK  183  A    between atoms: _461  and  _462
REMARK  184  A    between atoms: _461  and  _464
REMARK  185  A    between atoms: _464  and  _465
REMARK  186  A    between atoms: _465  and  _466
REMARK  187  A    between atoms: _466  and  _467
REMARK  188  A    between atoms: _467  and  _468
REMARK  189  A    between atoms: _472  and  _474
REMARK  190  A    between atoms: _474  and  _475
REMARK  191  A    between atoms: _474  and  _477
REMARK  192  A    between atoms: _477  and  _478
REMARK  193  A    between atoms: _483  and  _484
REMARK  194  A    between atoms: _486  and  _488
REMARK  195  A    between atoms: _488  and  _489
REMARK  196  A    between atoms: _488  and  _491
REMARK  197  A    between atoms: _491  and  _492
REMARK  198  A    between atoms: _494  and  _496
REMARK  199  A    between atoms: _496  and  _497
REMARK  200  A    between atoms: _496  and  _499
REMARK  201  A    between atoms: _499  and  _500
REMARK  202  A    between atoms: _503  and  _505
REMARK  203  A    between atoms: _505  and  _506
REMARK  204  A    between atoms: _505  and  _508
REMARK  205  A    between atoms: _508  and  _509
REMARK  206  A    between atoms: _509  and  _510
REMARK  207  A    between atoms: _513  and  _515
REMARK  208  A    between atoms: _515  and  _516
REMARK  209  A    between atoms: _519  and  _521
REMARK  210  A    between atoms: _521  and  _522
REMARK  211  A    between atoms: _521  and  _524
REMARK  212  A    between atoms: _524  and  _525
REMARK  213  A    between atoms: _527  and  _529
REMARK  214  A    between atoms: _529  and  _530
REMARK  215  A    between atoms: _532  and  _534
REMARK  216  A    between atoms: _534  and  _535
REMARK  217  A    between atoms: _534  and  _537
REMARK  218  A    between atoms: _537  and  _538
REMARK  219  A    between atoms: _541  and  _543
REMARK  220  A    between atoms: _543  and  _544
REMARK  221  A    between atoms: _546  and  _548
REMARK  222  A    between atoms: _548  and  _549
REMARK  223  A    between atoms: _548  and  _551
REMARK  224  A    between atoms: _551  and  _552
REMARK  225  A    between atoms: _557  and  _559
REMARK  226  A    between atoms: _559  and  _560
REMARK  227  A    between atoms: _559  and  _562
REMARK  228  A    between atoms: _562  and  _563
REMARK  229  A    between atoms: _563  and  _564
REMARK  230  A    between atoms: _571  and  _572
REMARK  231  A    between atoms: _572  and  _588
REMARK  232  A    between atoms: _573  and  _575
REMARK  233  A    between atoms: _575  and  _576
REMARK  234  A    between atoms: _576  and  _577
REMARK  235  A    between atoms: _581  and  _583
REMARK  236  A    between atoms: _583  and  _584
REMARK  237  A    between atoms: _583  and  _591
REMARK  238  A    between atoms: _584  and  _585
REMARK  239  A    between atoms: _585  and  _586
REMARK  240  A    between atoms: _586  and  _587
REMARK  241  A    between atoms: _587  and  _588
REMARK  242  A    between atoms: _593  and  _595
REMARK  243  A    between atoms: _595  and  _596
REMARK  244  A    between atoms: _595  and  _598
REMARK  245  A    between atoms: _598  and  _599
REMARK  246  A    between atoms: _602  and  _604
REMARK  247  A    between atoms: _604  and  _605
REMARK  248  A    between atoms: _607  and  _609
REMARK  249  A    between atoms: _609  and  _610
REMARK  250  A    between atoms: _613  and  _615
REMARK  251  A    between atoms: _615  and  _616
REMARK  252  A    between atoms: _615  and  _618
REMARK  253  A    between atoms: _618  and  _619
REMARK  254  A    between atoms: _619  and  _620
REMARK  255  A    between atoms: _620  and  _621
REMARK  256  A    between atoms: _630  and  _632
REMARK  257  A    between atoms: _632  and  _633
REMARK  258  A    between atoms: _632  and  _635
REMARK  259  A    between atoms: _635  and  _636
REMARK  260  A    between atoms: _641  and  _642
REMARK                            x       y       z     vdW  Elec       q    Type
REMARK                         _______ _______ _______ _____ _____    ______ ____
ROOT
ATOM      1  O   HOH     1      35.340  12.834  31.070  0.00  0.00    +0.000 OA
ENDROOT
TORSDOF 0
REMARK  Name = ../refined-set-2016/3g2l/3g2l_pocket.pdb
REMARK  260 active torsions:
REMARK  status: ('A' for Active; 'I' for Inactive)
REMARK    1  A    between atoms: _1  and  _3
REMARK    2  A    between atoms: _3  and  _4
REMARK    3  A    between atoms: _3  and  _6
REMARK    4  A    between atoms: _6  and  _7
REMARK    5  A    between atoms: _12  and  _13
REMARK    6  A    between atoms: _15  and  _17
REMARK    7  A    between atoms: _17  and  _18
REMARK    8  A    between atoms: _17  and  _20
REMARK    9  A    between atoms: _20  and  _21
REMARK   10  A    between atoms: _21  and  _22
REMARK   11  A    between atoms: _25  and  _27
REMARK   12  A    between atoms: _27  and  _28
REMARK   13  A    between atoms: _27  and  _30
REMARK   14  A    between atoms: _30  and  _31
REMARK   15  A    between atoms: _36  and  _38
REMARK   16  A    between atoms: _38  and  _39
REMARK   17  A    between atoms: _41  and  _43
REMARK   18  A    between atoms: _43  and  _44
REMARK   19  A    between atoms: _46  and  _48
REMARK   20  A    between atoms: _48  and  _49
REMARK   21  A    between atoms: _48  and  _51
REMARK   22  A    between atoms: _51  and  _52
REMARK   23  A    between atoms: _55  and  _57
REMARK   24  A    between atoms: _57  and  _58
REMARK   25  A    between atoms: _60  and  _62
REMARK   26  A    between atoms: _62  and  _63
REMARK   27  A    between atoms: _62  and  _65
REMARK   28  A    between atoms: _65  and  _66
REMARK   29  A    between atoms: _66  and  _67
REMARK   30  A    between atoms: _67  and  _68
REMARK   31  A    between atoms: _77  and  _79
REMARK   32  A    between atoms: _79  and  _80
REMARK   33  A    between atoms: _79  and  _82
REMARK   34  A    between atoms: _82  and  _83
REMARK   35  A    between atoms: _86  and  _88
REMARK   36  A    between atoms: _88  and  _89
REMARK   37  A    between atoms: _92  and  _94
REMARK   38  A    between atoms: _94  and  _95
REMARK   39  A    between atoms: _94  and  _97
REMARK   40  A    between atoms: _97  and  _98
REMARK   41  A    between atoms: _104  and  _106
REMARK   42  A    between atoms: _106  and  _107
REMARK   43  A    between atoms: _106  and  _109
REMARK   44  A    between atoms: _109  and  _110
REMARK   45  A    between atoms: _115  and  _117
REMARK   46  A    between atoms: _117  and  _118
REMARK   47  A    between atoms: _117  and  _120
REMARK   48  A    between atoms: _120  and  _121
REMARK   49  A    between atoms: _124  and  _126
REMARK   50  A    between atoms: _126  and  _127
REMARK   51  A    between atoms: _126  and  _129
REMARK   52  A    between atoms: _129  and  _130
REMARK   53  A    between atoms: _135  and  _137
REMARK   54  A    between atoms: _137  and  _138
REMARK   55  A    between atoms: _137  and  _140
REMARK   56  A    between atoms: _140  and  _141
REMARK   57  A    between atoms: _147  and  _149
REMARK   58  A    between atoms: _149  and  _150
REMARK   59  A    between atoms: _149  and  _152
REMARK   60  A    between atoms: _152  and  _153
REMARK   61  A    between atoms: _159  and  _161
REMARK   62  A    between atoms: _161  and  _162
REMARK   63  A    between atoms: _161  and  _164
REMARK   64  A    between atoms: _164  and  _165
REMARK   65  A    between atoms: _165  and  _166
REMARK   66  A    between atoms: _169  and  _171
REMARK   67  A    between atoms: _171  and  _172
REMARK   68  A    between atoms: _171  and  _174
REMARK   69  A    between atoms: _174  and  _175
REMARK   70  A    between atoms: _175  and  _176
REMARK   71  A    between atoms: _176  and  _177
REMARK   72  A    between atoms: _186  and  _188
REMARK   73  A    between atoms: _188  and  _189
REMARK   74  A    between atoms: _188  and  _191
REMARK   75  A    between atoms: _191  and  _192
REMARK   76  A    between atoms: _197  and  _199
REMARK   77  A    between atoms: _199  and  _200
REMARK   78  A    between atoms: _199  and  _202
REMARK   79  A    between atoms: _202  and  _203
REMARK   80  A    between atoms: _206  and  _208
REMARK   81  A    between atoms: _208  and  _209
REMARK   82  A    between atoms: _208  and  _211
REMARK   83  A    between atoms: _211  and  _212
REMARK   84  A    between atoms: _215  and  _217
REMARK   85  A    between atoms: _217  and  _218
REMARK   86  A    between atoms: _217  and  _220
REMARK   87  A    between atoms: _220  and  _221
REMARK   88  A    between atoms: _226  and  _228
REMARK   89  A    between atoms: _228  and  _229
REMARK   90  A    between atoms: _228  and  _231
REMARK   91  A    between atoms: _231  and  _232
REMARK   92  A    between atoms: _235  and  _237
REMARK   93  A    between atoms: _237  and  _238
REMARK   94  A    between atoms: _237  and  _240
REMARK   95  A    between atoms: _240  and  _241
REMARK   96  A    between atoms: _246  and  _248
REMARK   97  A    between atoms: _248  and  _249
REMARK   98  A    between atoms: _248  and  _251
REMARK   99  A    between atoms: _251  and  _252
REMARK  100  A    between atoms: _257  and  _259
REMARK  101  A    between atoms: _259  and  _260
REMARK  102  A    between atoms: _259  and  _262
REMARK  103  A    between atoms: _262  and  _263
REMARK  104  A    between atoms: _266  and  _268
REMARK  105  A    between atoms: _268  and  _269
REMARK  106  A    between atoms: _268  and  _271
REMARK  107  A    between atoms: _274  and  _276
REMARK  108  A    between atoms: _276  and  _277
REMARK  109  A    between atoms: _276  and  _279
REMARK  110  A    between atoms: _279  and  _280
REMARK  111  A    between atoms: _284  and  _285
REMARK  112  A    between atoms: _290  and  _292
REMARK  113  A    between atoms: _292  and  _293
REMARK  114  A    between atoms: _292  and  _295
REMARK  115  A    between atoms: _295  and  _296
REMARK  116  A    between atoms: _296  and  _297
REMARK  117  A    between atoms: _300  and  _302
REMARK  118  A    between atoms: _302  and  _303
REMARK  119  A    between atoms: _306  and  _308
REMARK  120  A    between atoms: _308  and  _309
REMARK  121  A    between atoms: _308  and  _311
REMARK  122  A    between atoms: _311  and  _312
REMARK  123  A    between atoms: _315  and  _317
REMARK  124  A    between atoms: _317  and  _318
REMARK  125  A    between atoms: _317  and  _320
REMARK  126  A    between atoms: _320  and  _321
REMARK  127  A    between atoms: _321  and  _322
REMARK  128  A    between atoms: _325  and  _327
REMARK  129  A    between atoms: _327  and  _328
REMARK  130  A    between atoms: _327  and  _330
REMARK  131  A    between atoms: _330  and  _331
REMARK  132  A    between atoms: _336  and  _338
REMARK  133  A    between atoms: _338  and  _339
REMARK  134  A    between atoms: _341  and  _343
REMARK  135  A    between atoms: _343  and  _344
REMARK  136  A    between atoms: _343  and  _346
REMARK  137  A    between atoms: _349  and  _351
REMARK  138  A    between atoms: _351  and  _352
REMARK  139  A    between atoms: _355  and  _357
REMARK  140  A    between atoms: _357  and  _358
REMARK  141  A    between atoms: _357  and  _360
REMARK  142  A    between atoms: _360  and  _361
REMARK  143  A    between atoms: _366  and  _368
REMARK  144  A    between atoms: _368  and  _369
REMARK  145  A    between atoms: _368  and  _371
REMARK  146  A    between atoms: _371  and  _372
REMARK  147  A    between atoms: _372  and  _373
REMARK  148  A    between atoms: _373  and  _374
REMARK  149  A    between atoms: _374  and  _375
REMARK  150  A    between atoms: _379  and  _381
REMARK  151  A    between atoms: _381  and  _382
REMARK  152  A    between atoms: _381  and  _384
REMARK  153  A    between atoms: _384  and  _385
REMARK  154  A    between atoms: _388  and  _390
REMARK  155  A    between atoms: _390  and  _391
REMARK  156  A    between atoms: _390  and  _393
REMARK  157  A    between atoms: _393  and  _394
REMARK  158  A    between atoms: _399  and  _401
REMARK  159  A    between atoms: _401  and  _402
REMARK  160  A    between atoms: _404  and  _406
REMARK  161  A    between atoms: _406  and  _407
REMARK  162  A    between atoms: _406  and  _409
REMARK  163  A    between atoms: _409  and  _410
REMARK  164  A    between atoms: _410  and  _411
REMARK  165  A    between atoms: _411  and  _412
REMARK  166  A    between atoms: _412  and  _413
REMARK  167  A    between atoms: _417  and  _419
REMARK  168  A    between atoms: _419  and  _420
REMARK  169  A    between atoms: _419  and  _422
REMARK  170  A    between atoms: _422  and  _423
REMARK  171  A    between atoms: _423  and  _424
REMARK  172  A    between atoms: _424  and  _425
REMARK  173  A    between atoms: _434  and  _436
REMARK  174  A    between atoms: _436  and  _437
REMARK  175  A    between atoms: _436  and  _439
REMARK  176  A    between atoms: _439  and  _440
REMARK  177  A    between atoms: _445  and  _447
REMARK  178  A    between atoms: _447  and  _448
REMARK  179  A    between atoms: _447  and  _450
REMARK  180  A    between atoms: _450  and  _451
REMARK  181  A    between atoms: _456  and  _457
REMARK  182  A    between atoms: _459  and  _461
REMARK  183  A    between atoms: _461  and  _462
REMARK  184  A    between atoms: _461  and  _464
REMARK  185  A    between atoms: _464  and  _465
REMARK  186  A    between atoms: _465  and  _466
REMARK  187  A    between atoms: _466  and  _467
REMARK  188  A    between atoms: _467  and  _468
REMARK  189  A    between atoms: _472  and  _474
REMARK  190  A    between atoms: _474  and  _475
REMARK  191  A    between atoms: _474  and  _477
REMARK  192  A    between atoms: _477  and  _478
REMARK  193  A    between atoms: _483  and  _484
REMARK  194  A    between atoms: _486  and  _488
REMARK  195  A    between atoms: _488  and  _489
REMARK  196  A    between atoms: _488  and  _491
REMARK  197  A    between atoms: _491  and  _492
REMARK  198  A    between atoms: _494  and  _496
REMARK  199  A    between atoms: _496  and  _497
REMARK  200  A    between atoms: _496  and  _499
REMARK  201  A    between atoms: _499  and  _500
REMARK  202  A    between atoms: _503  and  _505
REMARK  203  A    between atoms: _505  and  _506
REMARK  204  A    between atoms: _505  and  _508
REMARK  205  A    between atoms: _508  and  _509
REMARK  206  A    between atoms: _509  and  _510
REMARK  207  A    between atoms: _513  and  _515
REMARK  208  A    between atoms: _515  and  _516
REMARK  209  A    between atoms: _519  and  _521
REMARK  210  A    between atoms: _521  and  _522
REMARK  211  A    between atoms: _521  and  _524
REMARK  212  A    between atoms: _524  and  _525
REMARK  213  A    between atoms: _527  and  _529
REMARK  214  A    between atoms: _529  and  _530
REMARK  215  A    between atoms: _532  and  _534
REMARK  216  A    between atoms: _534  and  _535
REMARK  217  A    between atoms: _534  and  _537
REMARK  218  A    between atoms: _537  and  _538
REMARK  219  A    between atoms: _541  and  _543
REMARK  220  A    between atoms: _543  and  _544
REMARK  221  A    between atoms: _546  and  _548
REMARK  222  A    between atoms: _548  and  _549
REMARK  223  A    between atoms: _548  and  _551
REMARK  224  A    between atoms: _551  and  _552
REMARK  225  A    between atoms: _557  and  _559
REMARK  226  A    between atoms: _559  and  _560
REMARK  227  A    between atoms: _559  and  _562
REMARK  228  A    between atoms: _562  and  _563
REMARK  229  A    between atoms: _563  and  _564
REMARK  230  A    between atoms: _571  and  _572
REMARK  231  A    between atoms: _572  and  _588
REMARK  232  A    between atoms: _573  and  _575
REMARK  233  A    between atoms: _575  and  _576
REMARK  234  A    between atoms: _576  and  _577
REMARK  235  A    between atoms: _581  and  _583
REMARK  236  A    between atoms: _583  and  _584
REMARK  237  A    between atoms: _583  and  _591
REMARK  238  A    between atoms: _584  and  _585
REMARK  239  A    between atoms: _585  and  _586
REMARK  240  A    between atoms: _586  and  _587
REMARK  241  A    between atoms: _587  and  _588
REMARK  242  A    between atoms: _593  and  _595
REMARK  243  A    between atoms: _595  and  _596
REMARK  244  A    between atoms: _595  and  _598
REMARK  245  A    between atoms: _598  and  _599
REMARK  246  A    between atoms: _602  and  _604
REMARK  247  A    between atoms: _604  and  _605
REMARK  248  A    between atoms: _607  and  _609
REMARK  249  A    between atoms: _609  and  _610
REMARK  250  A    between atoms: _613  and  _615
REMARK  251  A    between atoms: _615  and  _616
REMARK  252  A    between atoms: _615  and  _618
REMARK  253  A    between atoms: _618  and  _619
REMARK  254  A    between atoms: _619  and  _620
REMARK  255  A    between atoms: _620  and  _621
REMARK  256  A    between atoms: _630  and  _632
REMARK  257  A    between atoms: _632  and  _633
REMARK  258  A    between atoms: _632  and  _635
REMARK  259  A    between atoms: _635  and  _636
REMARK  260  A    between atoms: _641  and  _642
REMARK                            x       y       z     vdW  Elec       q    Type
REMARK                         _______ _______ _______ _____ _____    ______ ____
ROOT
ATOM      1  O   HOH     1      33.748  12.806  26.290  0.00  0.00    +0.000 OA
ENDROOT
TORSDOF 0
REMARK  Name = ../refined-set-2016/3g2l/3g2l_pocket.pdb
REMARK  260 active torsions:
REMARK  status: ('A' for Active; 'I' for Inactive)
REMARK    1  A    between atoms: _1  and  _3
REMARK    2  A    between atoms: _3  and  _4
REMARK    3  A    between atoms: _3  and  _6
REMARK    4  A    between atoms: _6  and  _7
REMARK    5  A    between atoms: _12  and  _13
REMARK    6  A    between atoms: _15  and  _17
REMARK    7  A    between atoms: _17  and  _18
REMARK    8  A    between atoms: _17  and  _20
REMARK    9  A    between atoms: _20  and  _21
REMARK   10  A    between atoms: _21  and  _22
REMARK   11  A    between atoms: _25  and  _27
REMARK   12  A    between atoms: _27  and  _28
REMARK   13  A    between atoms: _27  and  _30
REMARK   14  A    between atoms: _30  and  _31
REMARK   15  A    between atoms: _36  and  _38
REMARK   16  A    between atoms: _38  and  _39
REMARK   17  A    between atoms: _41  and  _43
REMARK   18  A    between atoms: _43  and  _44
REMARK   19  A    between atoms: _46  and  _48
REMARK   20  A    between atoms: _48  and  _49
REMARK   21  A    between atoms: _48  and  _51
REMARK   22  A    between atoms: _51  and  _52
REMARK   23  A    between atoms: _55  and  _57
REMARK   24  A    between atoms: _57  and  _58
REMARK   25  A    between atoms: _60  and  _62
REMARK   26  A    between atoms: _62  and  _63
REMARK   27  A    between atoms: _62  and  _65
REMARK   28  A    between atoms: _65  and  _66
REMARK   29  A    between atoms: _66  and  _67
REMARK   30  A    between atoms: _67  and  _68
REMARK   31  A    between atoms: _77  and  _79
REMARK   32  A    between atoms: _79  and  _80
REMARK   33  A    between atoms: _79  and  _82
REMARK   34  A    between atoms: _82  and  _83
REMARK   35  A    between atoms: _86  and  _88
REMARK   36  A    between atoms: _88  and  _89
REMARK   37  A    between atoms: _92  and  _94
REMARK   38  A    between atoms: _94  and  _95
REMARK   39  A    between atoms: _94  and  _97
REMARK   40  A    between atoms: _97  and  _98
REMARK   41  A    between atoms: _104  and  _106
REMARK   42  A    between atoms: _106  and  _107
REMARK   43  A    between atoms: _106  and  _109
REMARK   44  A    between atoms: _109  and  _110
REMARK   45  A    between atoms: _115  and  _117
REMARK   46  A    between atoms: _117  and  _118
REMARK   47  A    between atoms: _117  and  _120
REMARK   48  A    between atoms: _120  and  _121
REMARK   49  A    between atoms: _124  and  _126
REMARK   50  A    between atoms: _126  and  _127
REMARK   51  A    between atoms: _126  and  _129
REMARK   52  A    between atoms: _129  and  _130
REMARK   53  A    between atoms: _135  and  _137
REMARK   54  A    between atoms: _137  and  _138
REMARK   55  A    between atoms: _137  and  _140
REMARK   56  A    between atoms: _140  and  _141
REMARK   57  A    between atoms: _147  and  _149
REMARK   58  A    between atoms: _149  and  _150
REMARK   59  A    between atoms: _149  and  _152
REMARK   60  A    between atoms: _152  and  _153
REMARK   61  A    between atoms: _159  and  _161
REMARK   62  A    between atoms: _161  and  _162
REMARK   63  A    between atoms: _161  and  _164
REMARK   64  A    between atoms: _164  and  _165
REMARK   65  A    between atoms: _165  and  _166
REMARK   66  A    between atoms: _169  and  _171
REMARK   67  A    between atoms: _171  and  _172
REMARK   68  A    between atoms: _171  and  _174
REMARK   69  A    between atoms: _174  and  _175
REMARK   70  A    between atoms: _175  and  _176
REMARK   71  A    between atoms: _176  and  _177
REMARK   72  A    between atoms: _186  and  _188
REMARK   73  A    between atoms: _188  and  _189
REMARK   74  A    between atoms: _188  and  _191
REMARK   75  A    between atoms: _191  and  _192
REMARK   76  A    between atoms: _197  and  _199
REMARK   77  A    between atoms: _199  and  _200
REMARK   78  A    between atoms: _199  and  _202
REMARK   79  A    between atoms: _202  and  _203
REMARK   80  A    between atoms: _206  and  _208
REMARK   81  A    between atoms: _208  and  _209
REMARK   82  A    between atoms: _208  and  _211
REMARK   83  A    between atoms: _211  and  _212
REMARK   84  A    between atoms: _215  and  _217
REMARK   85  A    between atoms: _217  and  _218
REMARK   86  A    between atoms: _217  and  _220
REMARK   87  A    between atoms: _220  and  _221
REMARK   88  A    between atoms: _226  and  _228
REMARK   89  A    between atoms: _228  and  _229
REMARK   90  A    between atoms: _228  and  _231
REMARK   91  A    between atoms: _231  and  _232
REMARK   92  A    between atoms: _235  and  _237
REMARK   93  A    between atoms: _237  and  _238
REMARK   94  A    between atoms: _237  and  _240
REMARK   95  A    between atoms: _240  and  _241
REMARK   96  A    between atoms: _246  and  _248
REMARK   97  A    between atoms: _248  and  _249
REMARK   98  A    between atoms: _248  and  _251
REMARK   99  A    between atoms: _251  and  _252
REMARK  100  A    between atoms: _257  and  _259
REMARK  101  A    between atoms: _259  and  _260
REMARK  102  A    between atoms: _259  and  _262
REMARK  103  A    between atoms: _262  and  _263
REMARK  104  A    between atoms: _266  and  _268
REMARK  105  A    between atoms: _268  and  _269
REMARK  106  A    between atoms: _268  and  _271
REMARK  107  A    between atoms: _274  and  _276
REMARK  108  A    between atoms: _276  and  _277
REMARK  109  A    between atoms: _276  and  _279
REMARK  110  A    between atoms: _279  and  _280
REMARK  111  A    between atoms: _284  and  _285
REMARK  112  A    between atoms: _290  and  _292
REMARK  113  A    between atoms: _292  and  _293
REMARK  114  A    between atoms: _292  and  _295
REMARK  115  A    between atoms: _295  and  _296
REMARK  116  A    between atoms: _296  and  _297
REMARK  117  A    between atoms: _300  and  _302
REMARK  118  A    between atoms: _302  and  _303
REMARK  119  A    between atoms: _306  and  _308
REMARK  120  A    between atoms: _308  and  _309
REMARK  121  A    between atoms: _308  and  _311
REMARK  122  A    between atoms: _311  and  _312
REMARK  123  A    between atoms: _315  and  _317
REMARK  124  A    between atoms: _317  and  _318
REMARK  125  A    between atoms: _317  and  _320
REMARK  126  A    between atoms: _320  and  _321
REMARK  127  A    between atoms: _321  and  _322
REMARK  128  A    between atoms: _325  and  _327
REMARK  129  A    between atoms: _327  and  _328
REMARK  130  A    between atoms: _327  and  _330
REMARK  131  A    between atoms: _330  and  _331
REMARK  132  A    between atoms: _336  and  _338
REMARK  133  A    between atoms: _338  and  _339
REMARK  134  A    between atoms: _341  and  _343
REMARK  135  A    between atoms: _343  and  _344
REMARK  136  A    between atoms: _343  and  _346
REMARK  137  A    between atoms: _349  and  _351
REMARK  138  A    between atoms: _351  and  _352
REMARK  139  A    between atoms: _355  and  _357
REMARK  140  A    between atoms: _357  and  _358
REMARK  141  A    between atoms: _357  and  _360
REMARK  142  A    between atoms: _360  and  _361
REMARK  143  A    between atoms: _366  and  _368
REMARK  144  A    between atoms: _368  and  _369
REMARK  145  A    between atoms: _368  and  _371
REMARK  146  A    between atoms: _371  and  _372
REMARK  147  A    between atoms: _372  and  _373
REMARK  148  A    between atoms: _373  and  _374
REMARK  149  A    between atoms: _374  and  _375
REMARK  150  A    between atoms: _379  and  _381
REMARK  151  A    between atoms: _381  and  _382
REMARK  152  A    between atoms: _381  and  _384
REMARK  153  A    between atoms: _384  and  _385
REMARK  154  A    between atoms: _388  and  _390
REMARK  155  A    between atoms: _390  and  _391
REMARK  156  A    between atoms: _390  and  _393
REMARK  157  A    between atoms: _393  and  _394
REMARK  158  A    between atoms: _399  and  _401
REMARK  159  A    between atoms: _401  and  _402
REMARK  160  A    between atoms: _404  and  _406
REMARK  161  A    between atoms: _406  and  _407
REMARK  162  A    between atoms: _406  and  _409
REMARK  163  A    between atoms: _409  and  _410
REMARK  164  A    between atoms: _410  and  _411
REMARK  165  A    between atoms: _411  and  _412
REMARK  166  A    between atoms: _412  and  _413
REMARK  167  A    between atoms: _417  and  _419
REMARK  168  A    between atoms: _419  and  _420
REMARK  169  A    between atoms: _419  and  _422
REMARK  170  A    between atoms: _422  and  _423
REMARK  171  A    between atoms: _423  and  _424
REMARK  172  A    between atoms: _424  and  _425
REMARK  173  A    between atoms: _434  and  _436
REMARK  174  A    between atoms: _436  and  _437
REMARK  175  A    between atoms: _436  and  _439
REMARK  176  A    between atoms: _439  and  _440
REMARK  177  A    between atoms: _445  and  _447
REMARK  178  A    between atoms: _447  and  _448
REMARK  179  A    between atoms: _447  and  _450
REMARK  180  A    between atoms: _450  and  _451
REMARK  181  A    between atoms: _456  and  _457
REMARK  182  A    between atoms: _459  and  _461
REMARK  183  A    between atoms: _461  and  _462
REMARK  184  A    between atoms: _461  and  _464
REMARK  185  A    between atoms: _464  and  _465
REMARK  186  A    between atoms: _465  and  _466
REMARK  187  A    between atoms: _466  and  _467
REMARK  188  A    between atoms: _467  and  _468
REMARK  189  A    between atoms: _472  and  _474
REMARK  190  A    between atoms: _474  and  _475
REMARK  191  A    between atoms: _474  and  _477
REMARK  192  A    between atoms: _477  and  _478
REMARK  193  A    between atoms: _483  and  _484
REMARK  194  A    between atoms: _486  and  _488
REMARK  195  A    between atoms: _488  and  _489
REMARK  196  A    between atoms: _488  and  _491
REMARK  197  A    between atoms: _491  and  _492
REMARK  198  A    between atoms: _494  and  _496
REMARK  199  A    between atoms: _496  and  _497
REMARK  200  A    between atoms: _496  and  _499
REMARK  201  A    between atoms: _499  and  _500
REMARK  202  A    between atoms: _503  and  _505
REMARK  203  A    between atoms: _505  and  _506
REMARK  204  A    between atoms: _505  and  _508
REMARK  205  A    between atoms: _508  and  _509
REMARK  206  A    between atoms: _509  and  _510
REMARK  207  A    between atoms: _513  and  _515
REMARK  208  A    between atoms: _515  and  _516
REMARK  209  A    between atoms: _519  and  _521
REMARK  210  A    between atoms: _521  and  _522
REMARK  211  A    between atoms: _521  and  _524
REMARK  212  A    between atoms: _524  and  _525
REMARK  213  A    between atoms: _527  and  _529
REMARK  214  A    between atoms: _529  and  _530
REMARK  215  A    between atoms: _532  and  _534
REMARK  216  A    between atoms: _534  and  _535
REMARK  217  A    between atoms: _534  and  _537
REMARK  218  A    between atoms: _537  and  _538
REMARK  219  A    between atoms: _541  and  _543
REMARK  220  A    between atoms: _543  and  _544
REMARK  221  A    between atoms: _546  and  _548
REMARK  222  A    between atoms: _548  and  _549
REMARK  223  A    between atoms: _548  and  _551
REMARK  224  A    between atoms: _551  and  _552
REMARK  225  A    between atoms: _557  and  _559
REMARK  226  A    between atoms: _559  and  _560
REMARK  227  A    between atoms: _559  and  _562
REMARK  228  A    between atoms: _562  and  _563
REMARK  229  A    between atoms: _563  and  _564
REMARK  230  A    between atoms: _571  and  _572
REMARK  231  A    between atoms: _572  and  _588
REMARK  232  A    between atoms: _573  and  _575
REMARK  233  A    between atoms: _575  and  _576
REMARK  234  A    between atoms: _576  and  _577
REMARK  235  A    between atoms: _581  and  _583
REMARK  236  A    between atoms: _583  and  _584
REMARK  237  A    between atoms: _583  and  _591
REMARK  238  A    between atoms: _584  and  _585
REMARK  239  A    between atoms: _585  and  _586
REMARK  240  A    between atoms: _586  and  _587
REMARK  241  A    between atoms: _587  and  _588
REMARK  242  A    between atoms: _593  and  _595
REMARK  243  A    between atoms: _595  and  _596
REMARK  244  A    between atoms: _595  and  _598
REMARK  245  A    between atoms: _598  and  _599
REMARK  246  A    between atoms: _602  and  _604
REMARK  247  A    between atoms: _604  and  _605
REMARK  248  A    between atoms: _607  and  _609
REMARK  249  A    between atoms: _609  and  _610
REMARK  250  A    between atoms: _613  and  _615
REMARK  251  A    between atoms: _615  and  _616
REMARK  252  A    between atoms: _615  and  _618
REMARK  253  A    between atoms: _618  and  _619
REMARK  254  A    between atoms: _619  and  _620
REMARK  255  A    between atoms: _620  and  _621
REMARK  256  A    between atoms: _630  and  _632
REMARK  257  A    between atoms: _632  and  _633
REMARK  258  A    between atoms: _632  and  _635
REMARK  259  A    between atoms: _635  and  _636
REMARK  260  A    between atoms: _641  and  _642
REMARK                            x       y       z     vdW  Elec       q    Type
REMARK                         _______ _______ _______ _____ _____    ______ ____
ROOT
ATOM      1  O   HOH     1      36.728  22.211  17.904  0.00  0.00    +0.000 OA
ENDROOT
TORSDOF 0
REMARK  Name = ../refined-set-2016/3g2l/3g2l_pocket.pdb
REMARK  260 active torsions:
REMARK  status: ('A' for Active; 'I' for Inactive)
REMARK    1  A    between atoms: _1  and  _3
REMARK    2  A    between atoms: _3  and  _4
REMARK    3  A    between atoms: _3  and  _6
REMARK    4  A    between atoms: _6  and  _7
REMARK    5  A    between atoms: _12  and  _13
REMARK    6  A    between atoms: _15  and  _17
REMARK    7  A    between atoms: _17  and  _18
REMARK    8  A    between atoms: _17  and  _20
REMARK    9  A    between atoms: _20  and  _21
REMARK   10  A    between atoms: _21  and  _22
REMARK   11  A    between atoms: _25  and  _27
REMARK   12  A    between atoms: _27  and  _28
REMARK   13  A    between atoms: _27  and  _30
REMARK   14  A    between atoms: _30  and  _31
REMARK   15  A    between atoms: _36  and  _38
REMARK   16  A    between atoms: _38  and  _39
REMARK   17  A    between atoms: _41  and  _43
REMARK   18  A    between atoms: _43  and  _44
REMARK   19  A    between atoms: _46  and  _48
REMARK   20  A    between atoms: _48  and  _49
REMARK   21  A    between atoms: _48  and  _51
REMARK   22  A    between atoms: _51  and  _52
REMARK   23  A    between atoms: _55  and  _57
REMARK   24  A    between atoms: _57  and  _58
REMARK   25  A    between atoms: _60  and  _62
REMARK   26  A    between atoms: _62  and  _63
REMARK   27  A    between atoms: _62  and  _65
REMARK   28  A    between atoms: _65  and  _66
REMARK   29  A    between atoms: _66  and  _67
REMARK   30  A    between atoms: _67  and  _68
REMARK   31  A    between atoms: _77  and  _79
REMARK   32  A    between atoms: _79  and  _80
REMARK   33  A    between atoms: _79  and  _82
REMARK   34  A    between atoms: _82  and  _83
REMARK   35  A    between atoms: _86  and  _88
REMARK   36  A    between atoms: _88  and  _89
REMARK   37  A    between atoms: _92  and  _94
REMARK   38  A    between atoms: _94  and  _95
REMARK   39  A    between atoms: _94  and  _97
REMARK   40  A    between atoms: _97  and  _98
REMARK   41  A    between atoms: _104  and  _106
REMARK   42  A    between atoms: _106  and  _107
REMARK   43  A    between atoms: _106  and  _109
REMARK   44  A    between atoms: _109  and  _110
REMARK   45  A    between atoms: _115  and  _117
REMARK   46  A    between atoms: _117  and  _118
REMARK   47  A    between atoms: _117  and  _120
REMARK   48  A    between atoms: _120  and  _121
REMARK   49  A    between atoms: _124  and  _126
REMARK   50  A    between atoms: _126  and  _127
REMARK   51  A    between atoms: _126  and  _129
REMARK   52  A    between atoms: _129  and  _130
REMARK   53  A    between atoms: _135  and  _137
REMARK   54  A    between atoms: _137  and  _138
REMARK   55  A    between atoms: _137  and  _140
REMARK   56  A    between atoms: _140  and  _141
REMARK   57  A    between atoms: _147  and  _149
REMARK   58  A    between atoms: _149  and  _150
REMARK   59  A    between atoms: _149  and  _152
REMARK   60  A    between atoms: _152  and  _153
REMARK   61  A    between atoms: _159  and  _161
REMARK   62  A    between atoms: _161  and  _162
REMARK   63  A    between atoms: _161  and  _164
REMARK   64  A    between atoms: _164  and  _165
REMARK   65  A    between atoms: _165  and  _166
REMARK   66  A    between atoms: _169  and  _171
REMARK   67  A    between atoms: _171  and  _172
REMARK   68  A    between atoms: _171  and  _174
REMARK   69  A    between atoms: _174  and  _175
REMARK   70  A    between atoms: _175  and  _176
REMARK   71  A    between atoms: _176  and  _177
REMARK   72  A    between atoms: _186  and  _188
REMARK   73  A    between atoms: _188  and  _189
REMARK   74  A    between atoms: _188  and  _191
REMARK   75  A    between atoms: _191  and  _192
REMARK   76  A    between atoms: _197  and  _199
REMARK   77  A    between atoms: _199  and  _200
REMARK   78  A    between atoms: _199  and  _202
REMARK   79  A    between atoms: _202  and  _203
REMARK   80  A    between atoms: _206  and  _208
REMARK   81  A    between atoms: _208  and  _209
REMARK   82  A    between atoms: _208  and  _211
REMARK   83  A    between atoms: _211  and  _212
REMARK   84  A    between atoms: _215  and  _217
REMARK   85  A    between atoms: _217  and  _218
REMARK   86  A    between atoms: _217  and  _220
REMARK   87  A    between atoms: _220  and  _221
REMARK   88  A    between atoms: _226  and  _228
REMARK   89  A    between atoms: _228  and  _229
REMARK   90  A    between atoms: _228  and  _231
REMARK   91  A    between atoms: _231  and  _232
REMARK   92  A    between atoms: _235  and  _237
REMARK   93  A    between atoms: _237  and  _238
REMARK   94  A    between atoms: _237  and  _240
REMARK   95  A    between atoms: _240  and  _241
REMARK   96  A    between atoms: _246  and  _248
REMARK   97  A    between atoms: _248  and  _249
REMARK   98  A    between atoms: _248  and  _251
REMARK   99  A    between atoms: _251  and  _252
REMARK  100  A    between atoms: _257  and  _259
REMARK  101  A    between atoms: _259  and  _260
REMARK  102  A    between atoms: _259  and  _262
REMARK  103  A    between atoms: _262  and  _263
REMARK  104  A    between atoms: _266  and  _268
REMARK  105  A    between atoms: _268  and  _269
REMARK  106  A    between atoms: _268  and  _271
REMARK  107  A    between atoms: _274  and  _276
REMARK  108  A    between atoms: _276  and  _277
REMARK  109  A    between atoms: _276  and  _279
REMARK  110  A    between atoms: _279  and  _280
REMARK  111  A    between atoms: _284  and  _285
REMARK  112  A    between atoms: _290  and  _292
REMARK  113  A    between atoms: _292  and  _293
REMARK  114  A    between atoms: _292  and  _295
REMARK  115  A    between atoms: _295  and  _296
REMARK  116  A    between atoms: _296  and  _297
REMARK  117  A    between atoms: _300  and  _302
REMARK  118  A    between atoms: _302  and  _303
REMARK  119  A    between atoms: _306  and  _308
REMARK  120  A    between atoms: _308  and  _309
REMARK  121  A    between atoms: _308  and  _311
REMARK  122  A    between atoms: _311  and  _312
REMARK  123  A    between atoms: _315  and  _317
REMARK  124  A    between atoms: _317  and  _318
REMARK  125  A    between atoms: _317  and  _320
REMARK  126  A    between atoms: _320  and  _321
REMARK  127  A    between atoms: _321  and  _322
REMARK  128  A    between atoms: _325  and  _327
REMARK  129  A    between atoms: _327  and  _328
REMARK  130  A    between atoms: _327  and  _330
REMARK  131  A    between atoms: _330  and  _331
REMARK  132  A    between atoms: _336  and  _338
REMARK  133  A    between atoms: _338  and  _339
REMARK  134  A    between atoms: _341  and  _343
REMARK  135  A    between atoms: _343  and  _344
REMARK  136  A    between atoms: _343  and  _346
REMARK  137  A    between atoms: _349  and  _351
REMARK  138  A    between atoms: _351  and  _352
REMARK  139  A    between atoms: _355  and  _357
REMARK  140  A    between atoms: _357  and  _358
REMARK  141  A    between atoms: _357  and  _360
REMARK  142  A    between atoms: _360  and  _361
REMARK  143  A    between atoms: _366  and  _368
REMARK  144  A    between atoms: _368  and  _369
REMARK  145  A    between atoms: _368  and  _371
REMARK  146  A    between atoms: _371  and  _372
REMARK  147  A    between atoms: _372  and  _373
REMARK  148  A    between atoms: _373  and  _374
REMARK  149  A    between atoms: _374  and  _375
REMARK  150  A    between atoms: _379  and  _381
REMARK  151  A    between atoms: _381  and  _382
REMARK  152  A    between atoms: _381  and  _384
REMARK  153  A    between atoms: _384  and  _385
REMARK  154  A    between atoms: _388  and  _390
REMARK  155  A    between atoms: _390  and  _391
REMARK  156  A    between atoms: _390  and  _393
REMARK  157  A    between atoms: _393  and  _394
REMARK  158  A    between atoms: _399  and  _401
REMARK  159  A    between atoms: _401  and  _402
REMARK  160  A    between atoms: _404  and  _406
REMARK  161  A    between atoms: _406  and  _407
REMARK  162  A    between atoms: _406  and  _409
REMARK  163  A    between atoms: _409  and  _410
REMARK  164  A    between atoms: _410  and  _411
REMARK  165  A    between atoms: _411  and  _412
REMARK  166  A    between atoms: _412  and  _413
REMARK  167  A    between atoms: _417  and  _419
REMARK  168  A    between atoms: _419  and  _420
REMARK  169  A    between atoms: _419  and  _422
REMARK  170  A    between atoms: _422  and  _423
REMARK  171  A    between atoms: _423  and  _424
REMARK  172  A    between atoms: _424  and  _425
REMARK  173  A    between atoms: _434  and  _436
REMARK  174  A    between atoms: _436  and  _437
REMARK  175  A    between atoms: _436  and  _439
REMARK  176  A    between atoms: _439  and  _440
REMARK  177  A    between atoms: _445  and  _447
REMARK  178  A    between atoms: _447  and  _448
REMARK  179  A    between atoms: _447  and  _450
REMARK  180  A    between atoms: _450  and  _451
REMARK  181  A    between atoms: _456  and  _457
REMARK  182  A    between atoms: _459  and  _461
REMARK  183  A    between atoms: _461  and  _462
REMARK  184  A    between atoms: _461  and  _464
REMARK  185  A    between atoms: _464  and  _465
REMARK  186  A    between atoms: _465  and  _466
REMARK  187  A    between atoms: _466  and  _467
REMARK  188  A    between atoms: _467  and  _468
REMARK  189  A    between atoms: _472  and  _474
REMARK  190  A    between atoms: _474  and  _475
REMARK  191  A    between atoms: _474  and  _477
REMARK  192  A    between atoms: _477  and  _478
REMARK  193  A    between atoms: _483  and  _484
REMARK  194  A    between atoms: _486  and  _488
REMARK  195  A    between atoms: _488  and  _489
REMARK  196  A    between atoms: _488  and  _491
REMARK  197  A    between atoms: _491  and  _492
REMARK  198  A    between atoms: _494  and  _496
REMARK  199  A    between atoms: _496  and  _497
REMARK  200  A    between atoms: _496  and  _499
REMARK  201  A    between atoms: _499  and  _500
REMARK  202  A    between atoms: _503  and  _505
REMARK  203  A    between atoms: _505  and  _506
REMARK  204  A    between atoms: _505  and  _508
REMARK  205  A    between atoms: _508  and  _509
REMARK  206  A    between atoms: _509  and  _510
REMARK  207  A    between atoms: _513  and  _515
REMARK  208  A    between atoms: _515  and  _516
REMARK  209  A    between atoms: _519  and  _521
REMARK  210  A    between atoms: _521  and  _522
REMARK  211  A    between atoms: _521  and  _524
REMARK  212  A    between atoms: _524  and  _525
REMARK  213  A    between atoms: _527  and  _529
REMARK  214  A    between atoms: _529  and  _530
REMARK  215  A    between atoms: _532  and  _534
REMARK  216  A    between atoms: _534  and  _535
REMARK  217  A    between atoms: _534  and  _537
REMARK  218  A    between atoms: _537  and  _538
REMARK  219  A    between atoms: _541  and  _543
REMARK  220  A    between atoms: _543  and  _544
REMARK  221  A    between atoms: _546  and  _548
REMARK  222  A    between atoms: _548  and  _549
REMARK  223  A    between atoms: _548  and  _551
REMARK  224  A    between atoms: _551  and  _552
REMARK  225  A    between atoms: _557  and  _559
REMARK  226  A    between atoms: _559  and  _560
REMARK  227  A    between atoms: _559  and  _562
REMARK  228  A    between atoms: _562  and  _563
REMARK  229  A    between atoms: _563  and  _564
REMARK  230  A    between atoms: _571  and  _572
REMARK  231  A    between atoms: _572  and  _588
REMARK  232  A    between atoms: _573  and  _575
REMARK  233  A    between atoms: _575  and  _576
REMARK  234  A    between atoms: _576  and  _577
REMARK  235  A    between atoms: _581  and  _583
REMARK  236  A    between atoms: _583  and  _584
REMARK  237  A    between atoms: _583  and  _591
REMARK  238  A    between atoms: _584  and  _585
REMARK  239  A    between atoms: _585  and  _586
REMARK  240  A    between atoms: _586  and  _587
REMARK  241  A    between atoms: _587  and  _588
REMARK  242  A    between atoms: _593  and  _595
REMARK  243  A    between atoms: _595  and  _596
REMARK  244  A    between atoms: _595  and  _598
REMARK  245  A    between atoms: _598  and  _599
REMARK  246  A    between atoms: _602  and  _604
REMARK  247  A    between atoms: _604  and  _605
REMARK  248  A    between atoms: _607  and  _609
REMARK  249  A    between atoms: _609  and  _610
REMARK  250  A    between atoms: _613  and  _615
REMARK  251  A    between atoms: _615  and  _616
REMARK  252  A    between atoms: _615  and  _618
REMARK  253  A    between atoms: _618  and  _619
REMARK  254  A    between atoms: _619  and  _620
REMARK  255  A    between atoms: _620  and  _621
REMARK  256  A    between atoms: _630  and  _632
REMARK  257  A    between atoms: _632  and  _633
REMARK  258  A    between atoms: _632  and  _635
REMARK  259  A    between atoms: _635  and  _636
REMARK  260  A    between atoms: _641  and  _642
REMARK                            x       y       z     vdW  Elec       q    Type
REMARK                         _______ _______ _______ _____ _____    ______ ____
ROOT
ATOM      1  O   HOH     1      39.166  22.856  19.657  0.00  0.00    +0.000 OA
ENDROOT
TORSDOF 0
REMARK  Name = ../refined-set-2016/3g2l/3g2l_pocket.pdb
REMARK  260 active torsions:
REMARK  status: ('A' for Active; 'I' for Inactive)
REMARK    1  A    between atoms: _1  and  _3
REMARK    2  A    between atoms: _3  and  _4
REMARK    3  A    between atoms: _3  and  _6
REMARK    4  A    between atoms: _6  and  _7
REMARK    5  A    between atoms: _12  and  _13
REMARK    6  A    between atoms: _15  and  _17
REMARK    7  A    between atoms: _17  and  _18
REMARK    8  A    between atoms: _17  and  _20
REMARK    9  A    between atoms: _20  and  _21
REMARK   10  A    between atoms: _21  and  _22
REMARK   11  A    between atoms: _25  and  _27
REMARK   12  A    between atoms: _27  and  _28
REMARK   13  A    between atoms: _27  and  _30
REMARK   14  A    between atoms: _30  and  _31
REMARK   15  A    between atoms: _36  and  _38
REMARK   16  A    between atoms: _38  and  _39
REMARK   17  A    between atoms: _41  and  _43
REMARK   18  A    between atoms: _43  and  _44
REMARK   19  A    between atoms: _46  and  _48
REMARK   20  A    between atoms: _48  and  _49
REMARK   21  A    between atoms: _48  and  _51
REMARK   22  A    between atoms: _51  and  _52
REMARK   23  A    between atoms: _55  and  _57
REMARK   24  A    between atoms: _57  and  _58
REMARK   25  A    between atoms: _60  and  _62
REMARK   26  A    between atoms: _62  and  _63
REMARK   27  A    between atoms: _62  and  _65
REMARK   28  A    between atoms: _65  and  _66
REMARK   29  A    between atoms: _66  and  _67
REMARK   30  A    between atoms: _67  and  _68
REMARK   31  A    between atoms: _77  and  _79
REMARK   32  A    between atoms: _79  and  _80
REMARK   33  A    between atoms: _79  and  _82
REMARK   34  A    between atoms: _82  and  _83
REMARK   35  A    between atoms: _86  and  _88
REMARK   36  A    between atoms: _88  and  _89
REMARK   37  A    between atoms: _92  and  _94
REMARK   38  A    between atoms: _94  and  _95
REMARK   39  A    between atoms: _94  and  _97
REMARK   40  A    between atoms: _97  and  _98
REMARK   41  A    between atoms: _104  and  _106
REMARK   42  A    between atoms: _106  and  _107
REMARK   43  A    between atoms: _106  and  _109
REMARK   44  A    between atoms: _109  and  _110
REMARK   45  A    between atoms: _115  and  _117
REMARK   46  A    between atoms: _117  and  _118
REMARK   47  A    between atoms: _117  and  _120
REMARK   48  A    between atoms: _120  and  _121
REMARK   49  A    between atoms: _124  and  _126
REMARK   50  A    between atoms: _126  and  _127
REMARK   51  A    between atoms: _126  and  _129
REMARK   52  A    between atoms: _129  and  _130
REMARK   53  A    between atoms: _135  and  _137
REMARK   54  A    between atoms: _137  and  _138
REMARK   55  A    between atoms: _137  and  _140
REMARK   56  A    between atoms: _140  and  _141
REMARK   57  A    between atoms: _147  and  _149
REMARK   58  A    between atoms: _149  and  _150
REMARK   59  A    between atoms: _149  and  _152
REMARK   60  A    between atoms: _152  and  _153
REMARK   61  A    between atoms: _159  and  _161
REMARK   62  A    between atoms: _161  and  _162
REMARK   63  A    between atoms: _161  and  _164
REMARK   64  A    between atoms: _164  and  _165
REMARK   65  A    between atoms: _165  and  _166
REMARK   66  A    between atoms: _169  and  _171
REMARK   67  A    between atoms: _171  and  _172
REMARK   68  A    between atoms: _171  and  _174
REMARK   69  A    between atoms: _174  and  _175
REMARK   70  A    between atoms: _175  and  _176
REMARK   71  A    between atoms: _176  and  _177
REMARK   72  A    between atoms: _186  and  _188
REMARK   73  A    between atoms: _188  and  _189
REMARK   74  A    between atoms: _188  and  _191
REMARK   75  A    between atoms: _191  and  _192
REMARK   76  A    between atoms: _197  and  _199
REMARK   77  A    between atoms: _199  and  _200
REMARK   78  A    between atoms: _199  and  _202
REMARK   79  A    between atoms: _202  and  _203
REMARK   80  A    between atoms: _206  and  _208
REMARK   81  A    between atoms: _208  and  _209
REMARK   82  A    between atoms: _208  and  _211
REMARK   83  A    between atoms: _211  and  _212
REMARK   84  A    between atoms: _215  and  _217
REMARK   85  A    between atoms: _217  and  _218
REMARK   86  A    between atoms: _217  and  _220
REMARK   87  A    between atoms: _220  and  _221
REMARK   88  A    between atoms: _226  and  _228
REMARK   89  A    between atoms: _228  and  _229
REMARK   90  A    between atoms: _228  and  _231
REMARK   91  A    between atoms: _231  and  _232
REMARK   92  A    between atoms: _235  and  _237
REMARK   93  A    between atoms: _237  and  _238
REMARK   94  A    between atoms: _237  and  _240
REMARK   95  A    between atoms: _240  and  _241
REMARK   96  A    between atoms: _246  and  _248
REMARK   97  A    between atoms: _248  and  _249
REMARK   98  A    between atoms: _248  and  _251
REMARK   99  A    between atoms: _251  and  _252
REMARK  100  A    between atoms: _257  and  _259
REMARK  101  A    between atoms: _259  and  _260
REMARK  102  A    between atoms: _259  and  _262
REMARK  103  A    between atoms: _262  and  _263
REMARK  104  A    between atoms: _266  and  _268
REMARK  105  A    between atoms: _268  and  _269
REMARK  106  A    between atoms: _268  and  _271
REMARK  107  A    between atoms: _274  and  _276
REMARK  108  A    between atoms: _276  and  _277
REMARK  109  A    between atoms: _276  and  _279
REMARK  110  A    between atoms: _279  and  _280
REMARK  111  A    between atoms: _284  and  _285
REMARK  112  A    between atoms: _290  and  _292
REMARK  113  A    between atoms: _292  and  _293
REMARK  114  A    between atoms: _292  and  _295
REMARK  115  A    between atoms: _295  and  _296
REMARK  116  A    between atoms: _296  and  _297
REMARK  117  A    between atoms: _300  and  _302
REMARK  118  A    between atoms: _302  and  _303
REMARK  119  A    between atoms: _306  and  _308
REMARK  120  A    between atoms: _308  and  _309
REMARK  121  A    between atoms: _308  and  _311
REMARK  122  A    between atoms: _311  and  _312
REMARK  123  A    between atoms: _315  and  _317
REMARK  124  A    between atoms: _317  and  _318
REMARK  125  A    between atoms: _317  and  _320
REMARK  126  A    between atoms: _320  and  _321
REMARK  127  A    between atoms: _321  and  _322
REMARK  128  A    between atoms: _325  and  _327
REMARK  129  A    between atoms: _327  and  _328
REMARK  130  A    between atoms: _327  and  _330
REMARK  131  A    between atoms: _330  and  _331
REMARK  132  A    between atoms: _336  and  _338
REMARK  133  A    between atoms: _338  and  _339
REMARK  134  A    between atoms: _341  and  _343
REMARK  135  A    between atoms: _343  and  _344
REMARK  136  A    between atoms: _343  and  _346
REMARK  137  A    between atoms: _349  and  _351
REMARK  138  A    between atoms: _351  and  _352
REMARK  139  A    between atoms: _355  and  _357
REMARK  140  A    between atoms: _357  and  _358
REMARK  141  A    between atoms: _357  and  _360
REMARK  142  A    between atoms: _360  and  _361
REMARK  143  A    between atoms: _366  and  _368
REMARK  144  A    between atoms: _368  and  _369
REMARK  145  A    between atoms: _368  and  _371
REMARK  146  A    between atoms: _371  and  _372
REMARK  147  A    between atoms: _372  and  _373
REMARK  148  A    between atoms: _373  and  _374
REMARK  149  A    between atoms: _374  and  _375
REMARK  150  A    between atoms: _379  and  _381
REMARK  151  A    between atoms: _381  and  _382
REMARK  152  A    between atoms: _381  and  _384
REMARK  153  A    between atoms: _384  and  _385
REMARK  154  A    between atoms: _388  and  _390
REMARK  155  A    between atoms: _390  and  _391
REMARK  156  A    between atoms: _390  and  _393
REMARK  157  A    between atoms: _393  and  _394
REMARK  158  A    between atoms: _399  and  _401
REMARK  159  A    between atoms: _401  and  _402
REMARK  160  A    between atoms: _404  and  _406
REMARK  161  A    between atoms: _406  and  _407
REMARK  162  A    between atoms: _406  and  _409
REMARK  163  A    between atoms: _409  and  _410
REMARK  164  A    between atoms: _410  and  _411
REMARK  165  A    between atoms: _411  and  _412
REMARK  166  A    between atoms: _412  and  _413
REMARK  167  A    between atoms: _417  and  _419
REMARK  168  A    between atoms: _419  and  _420
REMARK  169  A    between atoms: _419  and  _422
REMARK  170  A    between atoms: _422  and  _423
REMARK  171  A    between atoms: _423  and  _424
REMARK  172  A    between atoms: _424  and  _425
REMARK  173  A    between atoms: _434  and  _436
REMARK  174  A    between atoms: _436  and  _437
REMARK  175  A    between atoms: _436  and  _439
REMARK  176  A    between atoms: _439  and  _440
REMARK  177  A    between atoms: _445  and  _447
REMARK  178  A    between atoms: _447  and  _448
REMARK  179  A    between atoms: _447  and  _450
REMARK  180  A    between atoms: _450  and  _451
REMARK  181  A    between atoms: _456  and  _457
REMARK  182  A    between atoms: _459  and  _461
REMARK  183  A    between atoms: _461  and  _462
REMARK  184  A    between atoms: _461  and  _464
REMARK  185  A    between atoms: _464  and  _465
REMARK  186  A    between atoms: _465  and  _466
REMARK  187  A    between atoms: _466  and  _467
REMARK  188  A    between atoms: _467  and  _468
REMARK  189  A    between atoms: _472  and  _474
REMARK  190  A    between atoms: _474  and  _475
REMARK  191  A    between atoms: _474  and  _477
REMARK  192  A    between atoms: _477  and  _478
REMARK  193  A    between atoms: _483  and  _484
REMARK  194  A    between atoms: _486  and  _488
REMARK  195  A    between atoms: _488  and  _489
REMARK  196  A    between atoms: _488  and  _491
REMARK  197  A    between atoms: _491  and  _492
REMARK  198  A    between atoms: _494  and  _496
REMARK  199  A    between atoms: _496  and  _497
REMARK  200  A    between atoms: _496  and  _499
REMARK  201  A    between atoms: _499  and  _500
REMARK  202  A    between atoms: _503  and  _505
REMARK  203  A    between atoms: _505  and  _506
REMARK  204  A    between atoms: _505  and  _508
REMARK  205  A    between atoms: _508  and  _509
REMARK  206  A    between atoms: _509  and  _510
REMARK  207  A    between atoms: _513  and  _515
REMARK  208  A    between atoms: _515  and  _516
REMARK  209  A    between atoms: _519  and  _521
REMARK  210  A    between atoms: _521  and  _522
REMARK  211  A    between atoms: _521  and  _524
REMARK  212  A    between atoms: _524  and  _525
REMARK  213  A    between atoms: _527  and  _529
REMARK  214  A    between atoms: _529  and  _530
REMARK  215  A    between atoms: _532  and  _534
REMARK  216  A    between atoms: _534  and  _535
REMARK  217  A    between atoms: _534  and  _537
REMARK  218  A    between atoms: _537  and  _538
REMARK  219  A    between atoms: _541  and  _543
REMARK  220  A    between atoms: _543  and  _544
REMARK  221  A    between atoms: _546  and  _548
REMARK  222  A    between atoms: _548  and  _549
REMARK  223  A    between atoms: _548  and  _551
REMARK  224  A    between atoms: _551  and  _552
REMARK  225  A    between atoms: _557  and  _559
REMARK  226  A    between atoms: _559  and  _560
REMARK  227  A    between atoms: _559  and  _562
REMARK  228  A    between atoms: _562  and  _563
REMARK  229  A    between atoms: _563  and  _564
REMARK  230  A    between atoms: _571  and  _572
REMARK  231  A    between atoms: _572  and  _588
REMARK  232  A    between atoms: _573  and  _575
REMARK  233  A    between atoms: _575  and  _576
REMARK  234  A    between atoms: _576  and  _577
REMARK  235  A    between atoms: _581  and  _583
REMARK  236  A    between atoms: _583  and  _584
REMARK  237  A    between atoms: _583  and  _591
REMARK  238  A    between atoms: _584  and  _585
REMARK  239  A    between atoms: _585  and  _586
REMARK  240  A    between atoms: _586  and  _587
REMARK  241  A    between atoms: _587  and  _588
REMARK  242  A    between atoms: _593  and  _595
REMARK  243  A    between atoms: _595  and  _596
REMARK  244  A    between atoms: _595  and  _598
REMARK  245  A    between atoms: _598  and  _599
REMARK  246  A    between atoms: _602  and  _604
REMARK  247  A    between atoms: _604  and  _605
REMARK  248  A    between atoms: _607  and  _609
REMARK  249  A    between atoms: _609  and  _610
REMARK  250  A    between atoms: _613  and  _615
REMARK  251  A    between atoms: _615  and  _616
REMARK  252  A    between atoms: _615  and  _618
REMARK  253  A    between atoms: _618  and  _619
REMARK  254  A    between atoms: _619  and  _620
REMARK  255  A    between atoms: _620  and  _621
REMARK  256  A    between atoms: _630  and  _632
REMARK  257  A    between atoms: _632  and  _633
REMARK  258  A    between atoms: _632  and  _635
REMARK  259  A    between atoms: _635  and  _636
REMARK  260  A    between atoms: _641  and  _642
REMARK                            x       y       z     vdW  Elec       q    Type
REMARK                         _______ _______ _______ _____ _____    ______ ____
ROOT
ATOM      1  O   HOH     1      38.720  23.910  22.126  0.00  0.00    +0.000 OA
ENDROOT
TORSDOF 0
REMARK  Name = ../refined-set-2016/3g2l/3g2l_pocket.pdb
REMARK  260 active torsions:
REMARK  status: ('A' for Active; 'I' for Inactive)
REMARK    1  A    between atoms: _1  and  _3
REMARK    2  A    between atoms: _3  and  _4
REMARK    3  A    between atoms: _3  and  _6
REMARK    4  A    between atoms: _6  and  _7
REMARK    5  A    between atoms: _12  and  _13
REMARK    6  A    between atoms: _15  and  _17
REMARK    7  A    between atoms: _17  and  _18
REMARK    8  A    between atoms: _17  and  _20
REMARK    9  A    between atoms: _20  and  _21
REMARK   10  A    between atoms: _21  and  _22
REMARK   11  A    between atoms: _25  and  _27
REMARK   12  A    between atoms: _27  and  _28
REMARK   13  A    between atoms: _27  and  _30
REMARK   14  A    between atoms: _30  and  _31
REMARK   15  A    between atoms: _36  and  _38
REMARK   16  A    between atoms: _38  and  _39
REMARK   17  A    between atoms: _41  and  _43
REMARK   18  A    between atoms: _43  and  _44
REMARK   19  A    between atoms: _46  and  _48
REMARK   20  A    between atoms: _48  and  _49
REMARK   21  A    between atoms: _48  and  _51
REMARK   22  A    between atoms: _51  and  _52
REMARK   23  A    between atoms: _55  and  _57
REMARK   24  A    between atoms: _57  and  _58
REMARK   25  A    between atoms: _60  and  _62
REMARK   26  A    between atoms: _62  and  _63
REMARK   27  A    between atoms: _62  and  _65
REMARK   28  A    between atoms: _65  and  _66
REMARK   29  A    between atoms: _66  and  _67
REMARK   30  A    between atoms: _67  and  _68
REMARK   31  A    between atoms: _77  and  _79
REMARK   32  A    between atoms: _79  and  _80
REMARK   33  A    between atoms: _79  and  _82
REMARK   34  A    between atoms: _82  and  _83
REMARK   35  A    between atoms: _86  and  _88
REMARK   36  A    between atoms: _88  and  _89
REMARK   37  A    between atoms: _92  and  _94
REMARK   38  A    between atoms: _94  and  _95
REMARK   39  A    between atoms: _94  and  _97
REMARK   40  A    between atoms: _97  and  _98
REMARK   41  A    between atoms: _104  and  _106
REMARK   42  A    between atoms: _106  and  _107
REMARK   43  A    between atoms: _106  and  _109
REMARK   44  A    between atoms: _109  and  _110
REMARK   45  A    between atoms: _115  and  _117
REMARK   46  A    between atoms: _117  and  _118
REMARK   47  A    between atoms: _117  and  _120
REMARK   48  A    between atoms: _120  and  _121
REMARK   49  A    between atoms: _124  and  _126
REMARK   50  A    between atoms: _126  and  _127
REMARK   51  A    between atoms: _126  and  _129
REMARK   52  A    between atoms: _129  and  _130
REMARK   53  A    between atoms: _135  and  _137
REMARK   54  A    between atoms: _137  and  _138
REMARK   55  A    between atoms: _137  and  _140
REMARK   56  A    between atoms: _140  and  _141
REMARK   57  A    between atoms: _147  and  _149
REMARK   58  A    between atoms: _149  and  _150
REMARK   59  A    between atoms: _149  and  _152
REMARK   60  A    between atoms: _152  and  _153
REMARK   61  A    between atoms: _159  and  _161
REMARK   62  A    between atoms: _161  and  _162
REMARK   63  A    between atoms: _161  and  _164
REMARK   64  A    between atoms: _164  and  _165
REMARK   65  A    between atoms: _165  and  _166
REMARK   66  A    between atoms: _169  and  _171
REMARK   67  A    between atoms: _171  and  _172
REMARK   68  A    between atoms: _171  and  _174
REMARK   69  A    between atoms: _174  and  _175
REMARK   70  A    between atoms: _175  and  _176
REMARK   71  A    between atoms: _176  and  _177
REMARK   72  A    between atoms: _186  and  _188
REMARK   73  A    between atoms: _188  and  _189
REMARK   74  A    between atoms: _188  and  _191
REMARK   75  A    between atoms: _191  and  _192
REMARK   76  A    between atoms: _197  and  _199
REMARK   77  A    between atoms: _199  and  _200
REMARK   78  A    between atoms: _199  and  _202
REMARK   79  A    between atoms: _202  and  _203
REMARK   80  A    between atoms: _206  and  _208
REMARK   81  A    between atoms: _208  and  _209
REMARK   82  A    between atoms: _208  and  _211
REMARK   83  A    between atoms: _211  and  _212
REMARK   84  A    between atoms: _215  and  _217
REMARK   85  A    between atoms: _217  and  _218
REMARK   86  A    between atoms: _217  and  _220
REMARK   87  A    between atoms: _220  and  _221
REMARK   88  A    between atoms: _226  and  _228
REMARK   89  A    between atoms: _228  and  _229
REMARK   90  A    between atoms: _228  and  _231
REMARK   91  A    between atoms: _231  and  _232
REMARK   92  A    between atoms: _235  and  _237
REMARK   93  A    between atoms: _237  and  _238
REMARK   94  A    between atoms: _237  and  _240
REMARK   95  A    between atoms: _240  and  _241
REMARK   96  A    between atoms: _246  and  _248
REMARK   97  A    between atoms: _248  and  _249
REMARK   98  A    between atoms: _248  and  _251
REMARK   99  A    between atoms: _251  and  _252
REMARK  100  A    between atoms: _257  and  _259
REMARK  101  A    between atoms: _259  and  _260
REMARK  102  A    between atoms: _259  and  _262
REMARK  103  A    between atoms: _262  and  _263
REMARK  104  A    between atoms: _266  and  _268
REMARK  105  A    between atoms: _268  and  _269
REMARK  106  A    between atoms: _268  and  _271
REMARK  107  A    between atoms: _274  and  _276
REMARK  108  A    between atoms: _276  and  _277
REMARK  109  A    between atoms: _276  and  _279
REMARK  110  A    between atoms: _279  and  _280
REMARK  111  A    between atoms: _284  and  _285
REMARK  112  A    between atoms: _290  and  _292
REMARK  113  A    between atoms: _292  and  _293
REMARK  114  A    between atoms: _292  and  _295
REMARK  115  A    between atoms: _295  and  _296
REMARK  116  A    between atoms: _296  and  _297
REMARK  117  A    between atoms: _300  and  _302
REMARK  118  A    between atoms: _302  and  _303
REMARK  119  A    between atoms: _306  and  _308
REMARK  120  A    between atoms: _308  and  _309
REMARK  121  A    between atoms: _308  and  _311
REMARK  122  A    between atoms: _311  and  _312
REMARK  123  A    between atoms: _315  and  _317
REMARK  124  A    between atoms: _317  and  _318
REMARK  125  A    between atoms: _317  and  _320
REMARK  126  A    between atoms: _320  and  _321
REMARK  127  A    between atoms: _321  and  _322
REMARK  128  A    between atoms: _325  and  _327
REMARK  129  A    between atoms: _327  and  _328
REMARK  130  A    between atoms: _327  and  _330
REMARK  131  A    between atoms: _330  and  _331
REMARK  132  A    between atoms: _336  and  _338
REMARK  133  A    between atoms: _338  and  _339
REMARK  134  A    between atoms: _341  and  _343
REMARK  135  A    between atoms: _343  and  _344
REMARK  136  A    between atoms: _343  and  _346
REMARK  137  A    between atoms: _349  and  _351
REMARK  138  A    between atoms: _351  and  _352
REMARK  139  A    between atoms: _355  and  _357
REMARK  140  A    between atoms: _357  and  _358
REMARK  141  A    between atoms: _357  and  _360
REMARK  142  A    between atoms: _360  and  _361
REMARK  143  A    between atoms: _366  and  _368
REMARK  144  A    between atoms: _368  and  _369
REMARK  145  A    between atoms: _368  and  _371
REMARK  146  A    between atoms: _371  and  _372
REMARK  147  A    between atoms: _372  and  _373
REMARK  148  A    between atoms: _373  and  _374
REMARK  149  A    between atoms: _374  and  _375
REMARK  150  A    between atoms: _379  and  _381
REMARK  151  A    between atoms: _381  and  _382
REMARK  152  A    between atoms: _381  and  _384
REMARK  153  A    between atoms: _384  and  _385
REMARK  154  A    between atoms: _388  and  _390
REMARK  155  A    between atoms: _390  and  _391
REMARK  156  A    between atoms: _390  and  _393
REMARK  157  A    between atoms: _393  and  _394
REMARK  158  A    between atoms: _399  and  _401
REMARK  159  A    between atoms: _401  and  _402
REMARK  160  A    between atoms: _404  and  _406
REMARK  161  A    between atoms: _406  and  _407
REMARK  162  A    between atoms: _406  and  _409
REMARK  163  A    between atoms: _409  and  _410
REMARK  164  A    between atoms: _410  and  _411
REMARK  165  A    between atoms: _411  and  _412
REMARK  166  A    between atoms: _412  and  _413
REMARK  167  A    between atoms: _417  and  _419
REMARK  168  A    between atoms: _419  and  _420
REMARK  169  A    between atoms: _419  and  _422
REMARK  170  A    between atoms: _422  and  _423
REMARK  171  A    between atoms: _423  and  _424
REMARK  172  A    between atoms: _424  and  _425
REMARK  173  A    between atoms: _434  and  _436
REMARK  174  A    between atoms: _436  and  _437
REMARK  175  A    between atoms: _436  and  _439
REMARK  176  A    between atoms: _439  and  _440
REMARK  177  A    between atoms: _445  and  _447
REMARK  178  A    between atoms: _447  and  _448
REMARK  179  A    between atoms: _447  and  _450
REMARK  180  A    between atoms: _450  and  _451
REMARK  181  A    between atoms: _456  and  _457
REMARK  182  A    between atoms: _459  and  _461
REMARK  183  A    between atoms: _461  and  _462
REMARK  184  A    between atoms: _461  and  _464
REMARK  185  A    between atoms: _464  and  _465
REMARK  186  A    between atoms: _465  and  _466
REMARK  187  A    between atoms: _466  and  _467
REMARK  188  A    between atoms: _467  and  _468
REMARK  189  A    between atoms: _472  and  _474
REMARK  190  A    between atoms: _474  and  _475
REMARK  191  A    between atoms: _474  and  _477
REMARK  192  A    between atoms: _477  and  _478
REMARK  193  A    between atoms: _483  and  _484
REMARK  194  A    between atoms: _486  and  _488
REMARK  195  A    between atoms: _488  and  _489
REMARK  196  A    between atoms: _488  and  _491
REMARK  197  A    between atoms: _491  and  _492
REMARK  198  A    between atoms: _494  and  _496
REMARK  199  A    between atoms: _496  and  _497
REMARK  200  A    between atoms: _496  and  _499
REMARK  201  A    between atoms: _499  and  _500
REMARK  202  A    between atoms: _503  and  _505
REMARK  203  A    between atoms: _505  and  _506
REMARK  204  A    between atoms: _505  and  _508
REMARK  205  A    between atoms: _508  and  _509
REMARK  206  A    between atoms: _509  and  _510
REMARK  207  A    between atoms: _513  and  _515
REMARK  208  A    between atoms: _515  and  _516
REMARK  209  A    between atoms: _519  and  _521
REMARK  210  A    between atoms: _521  and  _522
REMARK  211  A    between atoms: _521  and  _524
REMARK  212  A    between atoms: _524  and  _525
REMARK  213  A    between atoms: _527  and  _529
REMARK  214  A    between atoms: _529  and  _530
REMARK  215  A    between atoms: _532  and  _534
REMARK  216  A    between atoms: _534  and  _535
REMARK  217  A    between atoms: _534  and  _537
REMARK  218  A    between atoms: _537  and  _538
REMARK  219  A    between atoms: _541  and  _543
REMARK  220  A    between atoms: _543  and  _544
REMARK  221  A    between atoms: _546  and  _548
REMARK  222  A    between atoms: _548  and  _549
REMARK  223  A    between atoms: _548  and  _551
REMARK  224  A    between atoms: _551  and  _552
REMARK  225  A    between atoms: _557  and  _559
REMARK  226  A    between atoms: _559  and  _560
REMARK  227  A    between atoms: _559  and  _562
REMARK  228  A    between atoms: _562  and  _563
REMARK  229  A    between atoms: _563  and  _564
REMARK  230  A    between atoms: _571  and  _572
REMARK  231  A    between atoms: _572  and  _588
REMARK  232  A    between atoms: _573  and  _575
REMARK  233  A    between atoms: _575  and  _576
REMARK  234  A    between atoms: _576  and  _577
REMARK  235  A    between atoms: _581  and  _583
REMARK  236  A    between atoms: _583  and  _584
REMARK  237  A    between atoms: _583  and  _591
REMARK  238  A    between atoms: _584  and  _585
REMARK  239  A    between atoms: _585  and  _586
REMARK  240  A    between atoms: _586  and  _587
REMARK  241  A    between atoms: _587  and  _588
REMARK  242  A    between atoms: _593  and  _595
REMARK  243  A    between atoms: _595  and  _596
REMARK  244  A    between atoms: _595  and  _598
REMARK  245  A    between atoms: _598  and  _599
REMARK  246  A    between atoms: _602  and  _604
REMARK  247  A    between atoms: _604  and  _605
REMARK  248  A    between atoms: _607  and  _609
REMARK  249  A    between atoms: _609  and  _610
REMARK  250  A    between atoms: _613  and  _615
REMARK  251  A    between atoms: _615  and  _616
REMARK  252  A    between atoms: _615  and  _618
REMARK  253  A    between atoms: _618  and  _619
REMARK  254  A    between atoms: _619  and  _620
REMARK  255  A    between atoms: _620  and  _621
REMARK  256  A    between atoms: _630  and  _632
REMARK  257  A    between atoms: _632  and  _633
REMARK  258  A    between atoms: _632  and  _635
REMARK  259  A    between atoms: _635  and  _636
REMARK  260  A    between atoms: _641  and  _642
REMARK                            x       y       z     vdW  Elec       q    Type
REMARK                         _______ _______ _______ _____ _____    ______ ____
ROOT
ATOM      1  O   HOH     1      35.885  24.311  24.332  0.00  0.00    +0.000 OA
ENDROOT
TORSDOF 0
REMARK  Name = ../refined-set-2016/3g2l/3g2l_pocket.pdb
REMARK  260 active torsions:
REMARK  status: ('A' for Active; 'I' for Inactive)
REMARK    1  A    between atoms: _1  and  _3
REMARK    2  A    between atoms: _3  and  _4
REMARK    3  A    between atoms: _3  and  _6
REMARK    4  A    between atoms: _6  and  _7
REMARK    5  A    between atoms: _12  and  _13
REMARK    6  A    between atoms: _15  and  _17
REMARK    7  A    between atoms: _17  and  _18
REMARK    8  A    between atoms: _17  and  _20
REMARK    9  A    between atoms: _20  and  _21
REMARK   10  A    between atoms: _21  and  _22
REMARK   11  A    between atoms: _25  and  _27
REMARK   12  A    between atoms: _27  and  _28
REMARK   13  A    between atoms: _27  and  _30
REMARK   14  A    between atoms: _30  and  _31
REMARK   15  A    between atoms: _36  and  _38
REMARK   16  A    between atoms: _38  and  _39
REMARK   17  A    between atoms: _41  and  _43
REMARK   18  A    between atoms: _43  and  _44
REMARK   19  A    between atoms: _46  and  _48
REMARK   20  A    between atoms: _48  and  _49
REMARK   21  A    between atoms: _48  and  _51
REMARK   22  A    between atoms: _51  and  _52
REMARK   23  A    between atoms: _55  and  _57
REMARK   24  A    between atoms: _57  and  _58
REMARK   25  A    between atoms: _60  and  _62
REMARK   26  A    between atoms: _62  and  _63
REMARK   27  A    between atoms: _62  and  _65
REMARK   28  A    between atoms: _65  and  _66
REMARK   29  A    between atoms: _66  and  _67
REMARK   30  A    between atoms: _67  and  _68
REMARK   31  A    between atoms: _77  and  _79
REMARK   32  A    between atoms: _79  and  _80
REMARK   33  A    between atoms: _79  and  _82
REMARK   34  A    between atoms: _82  and  _83
REMARK   35  A    between atoms: _86  and  _88
REMARK   36  A    between atoms: _88  and  _89
REMARK   37  A    between atoms: _92  and  _94
REMARK   38  A    between atoms: _94  and  _95
REMARK   39  A    between atoms: _94  and  _97
REMARK   40  A    between atoms: _97  and  _98
REMARK   41  A    between atoms: _104  and  _106
REMARK   42  A    between atoms: _106  and  _107
REMARK   43  A    between atoms: _106  and  _109
REMARK   44  A    between atoms: _109  and  _110
REMARK   45  A    between atoms: _115  and  _117
REMARK   46  A    between atoms: _117  and  _118
REMARK   47  A    between atoms: _117  and  _120
REMARK   48  A    between atoms: _120  and  _121
REMARK   49  A    between atoms: _124  and  _126
REMARK   50  A    between atoms: _126  and  _127
REMARK   51  A    between atoms: _126  and  _129
REMARK   52  A    between atoms: _129  and  _130
REMARK   53  A    between atoms: _135  and  _137
REMARK   54  A    between atoms: _137  and  _138
REMARK   55  A    between atoms: _137  and  _140
REMARK   56  A    between atoms: _140  and  _141
REMARK   57  A    between atoms: _147  and  _149
REMARK   58  A    between atoms: _149  and  _150
REMARK   59  A    between atoms: _149  and  _152
REMARK   60  A    between atoms: _152  and  _153
REMARK   61  A    between atoms: _159  and  _161
REMARK   62  A    between atoms: _161  and  _162
REMARK   63  A    between atoms: _161  and  _164
REMARK   64  A    between atoms: _164  and  _165
REMARK   65  A    between atoms: _165  and  _166
REMARK   66  A    between atoms: _169  and  _171
REMARK   67  A    between atoms: _171  and  _172
REMARK   68  A    between atoms: _171  and  _174
REMARK   69  A    between atoms: _174  and  _175
REMARK   70  A    between atoms: _175  and  _176
REMARK   71  A    between atoms: _176  and  _177
REMARK   72  A    between atoms: _186  and  _188
REMARK   73  A    between atoms: _188  and  _189
REMARK   74  A    between atoms: _188  and  _191
REMARK   75  A    between atoms: _191  and  _192
REMARK   76  A    between atoms: _197  and  _199
REMARK   77  A    between atoms: _199  and  _200
REMARK   78  A    between atoms: _199  and  _202
REMARK   79  A    between atoms: _202  and  _203
REMARK   80  A    between atoms: _206  and  _208
REMARK   81  A    between atoms: _208  and  _209
REMARK   82  A    between atoms: _208  and  _211
REMARK   83  A    between atoms: _211  and  _212
REMARK   84  A    between atoms: _215  and  _217
REMARK   85  A    between atoms: _217  and  _218
REMARK   86  A    between atoms: _217  and  _220
REMARK   87  A    between atoms: _220  and  _221
REMARK   88  A    between atoms: _226  and  _228
REMARK   89  A    between atoms: _228  and  _229
REMARK   90  A    between atoms: _228  and  _231
REMARK   91  A    between atoms: _231  and  _232
REMARK   92  A    between atoms: _235  and  _237
REMARK   93  A    between atoms: _237  and  _238
REMARK   94  A    between atoms: _237  and  _240
REMARK   95  A    between atoms: _240  and  _241
REMARK   96  A    between atoms: _246  and  _248
REMARK   97  A    between atoms: _248  and  _249
REMARK   98  A    between atoms: _248  and  _251
REMARK   99  A    between atoms: _251  and  _252
REMARK  100  A    between atoms: _257  and  _259
REMARK  101  A    between atoms: _259  and  _260
REMARK  102  A    between atoms: _259  and  _262
REMARK  103  A    between atoms: _262  and  _263
REMARK  104  A    between atoms: _266  and  _268
REMARK  105  A    between atoms: _268  and  _269
REMARK  106  A    between atoms: _268  and  _271
REMARK  107  A    between atoms: _274  and  _276
REMARK  108  A    between atoms: _276  and  _277
REMARK  109  A    between atoms: _276  and  _279
REMARK  110  A    between atoms: _279  and  _280
REMARK  111  A    between atoms: _284  and  _285
REMARK  112  A    between atoms: _290  and  _292
REMARK  113  A    between atoms: _292  and  _293
REMARK  114  A    between atoms: _292  and  _295
REMARK  115  A    between atoms: _295  and  _296
REMARK  116  A    between atoms: _296  and  _297
REMARK  117  A    between atoms: _300  and  _302
REMARK  118  A    between atoms: _302  and  _303
REMARK  119  A    between atoms: _306  and  _308
REMARK  120  A    between atoms: _308  and  _309
REMARK  121  A    between atoms: _308  and  _311
REMARK  122  A    between atoms: _311  and  _312
REMARK  123  A    between atoms: _315  and  _317
REMARK  124  A    between atoms: _317  and  _318
REMARK  125  A    between atoms: _317  and  _320
REMARK  126  A    between atoms: _320  and  _321
REMARK  127  A    between atoms: _321  and  _322
REMARK  128  A    between atoms: _325  and  _327
REMARK  129  A    between atoms: _327  and  _328
REMARK  130  A    between atoms: _327  and  _330
REMARK  131  A    between atoms: _330  and  _331
REMARK  132  A    between atoms: _336  and  _338
REMARK  133  A    between atoms: _338  and  _339
REMARK  134  A    between atoms: _341  and  _343
REMARK  135  A    between atoms: _343  and  _344
REMARK  136  A    between atoms: _343  and  _346
REMARK  137  A    between atoms: _349  and  _351
REMARK  138  A    between atoms: _351  and  _352
REMARK  139  A    between atoms: _355  and  _357
REMARK  140  A    between atoms: _357  and  _358
REMARK  141  A    between atoms: _357  and  _360
REMARK  142  A    between atoms: _360  and  _361
REMARK  143  A    between atoms: _366  and  _368
REMARK  144  A    between atoms: _368  and  _369
REMARK  145  A    between atoms: _368  and  _371
REMARK  146  A    between atoms: _371  and  _372
REMARK  147  A    between atoms: _372  and  _373
REMARK  148  A    between atoms: _373  and  _374
REMARK  149  A    between atoms: _374  and  _375
REMARK  150  A    between atoms: _379  and  _381
REMARK  151  A    between atoms: _381  and  _382
REMARK  152  A    between atoms: _381  and  _384
REMARK  153  A    between atoms: _384  and  _385
REMARK  154  A    between atoms: _388  and  _390
REMARK  155  A    between atoms: _390  and  _391
REMARK  156  A    between atoms: _390  and  _393
REMARK  157  A    between atoms: _393  and  _394
REMARK  158  A    between atoms: _399  and  _401
REMARK  159  A    between atoms: _401  and  _402
REMARK  160  A    between atoms: _404  and  _406
REMARK  161  A    between atoms: _406  and  _407
REMARK  162  A    between atoms: _406  and  _409
REMARK  163  A    between atoms: _409  and  _410
REMARK  164  A    between atoms: _410  and  _411
REMARK  165  A    between atoms: _411  and  _412
REMARK  166  A    between atoms: _412  and  _413
REMARK  167  A    between atoms: _417  and  _419
REMARK  168  A    between atoms: _419  and  _420
REMARK  169  A    between atoms: _419  and  _422
REMARK  170  A    between atoms: _422  and  _423
REMARK  171  A    between atoms: _423  and  _424
REMARK  172  A    between atoms: _424  and  _425
REMARK  173  A    between atoms: _434  and  _436
REMARK  174  A    between atoms: _436  and  _437
REMARK  175  A    between atoms: _436  and  _439
REMARK  176  A    between atoms: _439  and  _440
REMARK  177  A    between atoms: _445  and  _447
REMARK  178  A    between atoms: _447  and  _448
REMARK  179  A    between atoms: _447  and  _450
REMARK  180  A    between atoms: _450  and  _451
REMARK  181  A    between atoms: _456  and  _457
REMARK  182  A    between atoms: _459  and  _461
REMARK  183  A    between atoms: _461  and  _462
REMARK  184  A    between atoms: _461  and  _464
REMARK  185  A    between atoms: _464  and  _465
REMARK  186  A    between atoms: _465  and  _466
REMARK  187  A    between atoms: _466  and  _467
REMARK  188  A    between atoms: _467  and  _468
REMARK  189  A    between atoms: _472  and  _474
REMARK  190  A    between atoms: _474  and  _475
REMARK  191  A    between atoms: _474  and  _477
REMARK  192  A    between atoms: _477  and  _478
REMARK  193  A    between atoms: _483  and  _484
REMARK  194  A    between atoms: _486  and  _488
REMARK  195  A    between atoms: _488  and  _489
REMARK  196  A    between atoms: _488  and  _491
REMARK  197  A    between atoms: _491  and  _492
REMARK  198  A    between atoms: _494  and  _496
REMARK  199  A    between atoms: _496  and  _497
REMARK  200  A    between atoms: _496  and  _499
REMARK  201  A    between atoms: _499  and  _500
REMARK  202  A    between atoms: _503  and  _505
REMARK  203  A    between atoms: _505  and  _506
REMARK  204  A    between atoms: _505  and  _508
REMARK  205  A    between atoms: _508  and  _509
REMARK  206  A    between atoms: _509  and  _510
REMARK  207  A    between atoms: _513  and  _515
REMARK  208  A    between atoms: _515  and  _516
REMARK  209  A    between atoms: _519  and  _521
REMARK  210  A    between atoms: _521  and  _522
REMARK  211  A    between atoms: _521  and  _524
REMARK  212  A    between atoms: _524  and  _525
REMARK  213  A    between atoms: _527  and  _529
REMARK  214  A    between atoms: _529  and  _530
REMARK  215  A    between atoms: _532  and  _534
REMARK  216  A    between atoms: _534  and  _535
REMARK  217  A    between atoms: _534  and  _537
REMARK  218  A    between atoms: _537  and  _538
REMARK  219  A    between atoms: _541  and  _543
REMARK  220  A    between atoms: _543  and  _544
REMARK  221  A    between atoms: _546  and  _548
REMARK  222  A    between atoms: _548  and  _549
REMARK  223  A    between atoms: _548  and  _551
REMARK  224  A    between atoms: _551  and  _552
REMARK  225  A    between atoms: _557  and  _559
REMARK  226  A    between atoms: _559  and  _560
REMARK  227  A    between atoms: _559  and  _562
REMARK  228  A    between atoms: _562  and  _563
REMARK  229  A    between atoms: _563  and  _564
REMARK  230  A    between atoms: _571  and  _572
REMARK  231  A    between atoms: _572  and  _588
REMARK  232  A    between atoms: _573  and  _575
REMARK  233  A    between atoms: _575  and  _576
REMARK  234  A    between atoms: _576  and  _577
REMARK  235  A    between atoms: _581  and  _583
REMARK  236  A    between atoms: _583  and  _584
REMARK  237  A    between atoms: _583  and  _591
REMARK  238  A    between atoms: _584  and  _585
REMARK  239  A    between atoms: _585  and  _586
REMARK  240  A    between atoms: _586  and  _587
REMARK  241  A    between atoms: _587  and  _588
REMARK  242  A    between atoms: _593  and  _595
REMARK  243  A    between atoms: _595  and  _596
REMARK  244  A    between atoms: _595  and  _598
REMARK  245  A    between atoms: _598  and  _599
REMARK  246  A    between atoms: _602  and  _604
REMARK  247  A    between atoms: _604  and  _605
REMARK  248  A    between atoms: _607  and  _609
REMARK  249  A    between atoms: _609  and  _610
REMARK  250  A    between atoms: _613  and  _615
REMARK  251  A    between atoms: _615  and  _616
REMARK  252  A    between atoms: _615  and  _618
REMARK  253  A    between atoms: _618  and  _619
REMARK  254  A    between atoms: _619  and  _620
REMARK  255  A    between atoms: _620  and  _621
REMARK  256  A    between atoms: _630  and  _632
REMARK  257  A    between atoms: _632  and  _633
REMARK  258  A    between atoms: _632  and  _635
REMARK  259  A    between atoms: _635  and  _636
REMARK  260  A    between atoms: _641  and  _642
REMARK                            x       y       z     vdW  Elec       q    Type
REMARK                         _______ _______ _______ _____ _____    ______ ____
ROOT
ATOM      1  O   HOH     1      37.234  26.788  23.830  0.00  0.00    +0.000 OA
ENDROOT
TORSDOF 0
REMARK  Name = ../refined-set-2016/3g2l/3g2l_pocket.pdb
REMARK  260 active torsions:
REMARK  status: ('A' for Active; 'I' for Inactive)
REMARK    1  A    between atoms: _1  and  _3
REMARK    2  A    between atoms: _3  and  _4
REMARK    3  A    between atoms: _3  and  _6
REMARK    4  A    between atoms: _6  and  _7
REMARK    5  A    between atoms: _12  and  _13
REMARK    6  A    between atoms: _15  and  _17
REMARK    7  A    between atoms: _17  and  _18
REMARK    8  A    between atoms: _17  and  _20
REMARK    9  A    between atoms: _20  and  _21
REMARK   10  A    between atoms: _21  and  _22
REMARK   11  A    between atoms: _25  and  _27
REMARK   12  A    between atoms: _27  and  _28
REMARK   13  A    between atoms: _27  and  _30
REMARK   14  A    between atoms: _30  and  _31
REMARK   15  A    between atoms: _36  and  _38
REMARK   16  A    between atoms: _38  and  _39
REMARK   17  A    between atoms: _41  and  _43
REMARK   18  A    between atoms: _43  and  _44
REMARK   19  A    between atoms: _46  and  _48
REMARK   20  A    between atoms: _48  and  _49
REMARK   21  A    between atoms: _48  and  _51
REMARK   22  A    between atoms: _51  and  _52
REMARK   23  A    between atoms: _55  and  _57
REMARK   24  A    between atoms: _57  and  _58
REMARK   25  A    between atoms: _60  and  _62
REMARK   26  A    between atoms: _62  and  _63
REMARK   27  A    between atoms: _62  and  _65
REMARK   28  A    between atoms: _65  and  _66
REMARK   29  A    between atoms: _66  and  _67
REMARK   30  A    between atoms: _67  and  _68
REMARK   31  A    between atoms: _77  and  _79
REMARK   32  A    between atoms: _79  and  _80
REMARK   33  A    between atoms: _79  and  _82
REMARK   34  A    between atoms: _82  and  _83
REMARK   35  A    between atoms: _86  and  _88
REMARK   36  A    between atoms: _88  and  _89
REMARK   37  A    between atoms: _92  and  _94
REMARK   38  A    between atoms: _94  and  _95
REMARK   39  A    between atoms: _94  and  _97
REMARK   40  A    between atoms: _97  and  _98
REMARK   41  A    between atoms: _104  and  _106
REMARK   42  A    between atoms: _106  and  _107
REMARK   43  A    between atoms: _106  and  _109
REMARK   44  A    between atoms: _109  and  _110
REMARK   45  A    between atoms: _115  and  _117
REMARK   46  A    between atoms: _117  and  _118
REMARK   47  A    between atoms: _117  and  _120
REMARK   48  A    between atoms: _120  and  _121
REMARK   49  A    between atoms: _124  and  _126
REMARK   50  A    between atoms: _126  and  _127
REMARK   51  A    between atoms: _126  and  _129
REMARK   52  A    between atoms: _129  and  _130
REMARK   53  A    between atoms: _135  and  _137
REMARK   54  A    between atoms: _137  and  _138
REMARK   55  A    between atoms: _137  and  _140
REMARK   56  A    between atoms: _140  and  _141
REMARK   57  A    between atoms: _147  and  _149
REMARK   58  A    between atoms: _149  and  _150
REMARK   59  A    between atoms: _149  and  _152
REMARK   60  A    between atoms: _152  and  _153
REMARK   61  A    between atoms: _159  and  _161
REMARK   62  A    between atoms: _161  and  _162
REMARK   63  A    between atoms: _161  and  _164
REMARK   64  A    between atoms: _164  and  _165
REMARK   65  A    between atoms: _165  and  _166
REMARK   66  A    between atoms: _169  and  _171
REMARK   67  A    between atoms: _171  and  _172
REMARK   68  A    between atoms: _171  and  _174
REMARK   69  A    between atoms: _174  and  _175
REMARK   70  A    between atoms: _175  and  _176
REMARK   71  A    between atoms: _176  and  _177
REMARK   72  A    between atoms: _186  and  _188
REMARK   73  A    between atoms: _188  and  _189
REMARK   74  A    between atoms: _188  and  _191
REMARK   75  A    between atoms: _191  and  _192
REMARK   76  A    between atoms: _197  and  _199
REMARK   77  A    between atoms: _199  and  _200
REMARK   78  A    between atoms: _199  and  _202
REMARK   79  A    between atoms: _202  and  _203
REMARK   80  A    between atoms: _206  and  _208
REMARK   81  A    between atoms: _208  and  _209
REMARK   82  A    between atoms: _208  and  _211
REMARK   83  A    between atoms: _211  and  _212
REMARK   84  A    between atoms: _215  and  _217
REMARK   85  A    between atoms: _217  and  _218
REMARK   86  A    between atoms: _217  and  _220
REMARK   87  A    between atoms: _220  and  _221
REMARK   88  A    between atoms: _226  and  _228
REMARK   89  A    between atoms: _228  and  _229
REMARK   90  A    between atoms: _228  and  _231
REMARK   91  A    between atoms: _231  and  _232
REMARK   92  A    between atoms: _235  and  _237
REMARK   93  A    between atoms: _237  and  _238
REMARK   94  A    between atoms: _237  and  _240
REMARK   95  A    between atoms: _240  and  _241
REMARK   96  A    between atoms: _246  and  _248
REMARK   97  A    between atoms: _248  and  _249
REMARK   98  A    between atoms: _248  and  _251
REMARK   99  A    between atoms: _251  and  _252
REMARK  100  A    between atoms: _257  and  _259
REMARK  101  A    between atoms: _259  and  _260
REMARK  102  A    between atoms: _259  and  _262
REMARK  103  A    between atoms: _262  and  _263
REMARK  104  A    between atoms: _266  and  _268
REMARK  105  A    between atoms: _268  and  _269
REMARK  106  A    between atoms: _268  and  _271
REMARK  107  A    between atoms: _274  and  _276
REMARK  108  A    between atoms: _276  and  _277
REMARK  109  A    between atoms: _276  and  _279
REMARK  110  A    between atoms: _279  and  _280
REMARK  111  A    between atoms: _284  and  _285
REMARK  112  A    between atoms: _290  and  _292
REMARK  113  A    between atoms: _292  and  _293
REMARK  114  A    between atoms: _292  and  _295
REMARK  115  A    between atoms: _295  and  _296
REMARK  116  A    between atoms: _296  and  _297
REMARK  117  A    between atoms: _300  and  _302
REMARK  118  A    between atoms: _302  and  _303
REMARK  119  A    between atoms: _306  and  _308
REMARK  120  A    between atoms: _308  and  _309
REMARK  121  A    between atoms: _308  and  _311
REMARK  122  A    between atoms: _311  and  _312
REMARK  123  A    between atoms: _315  and  _317
REMARK  124  A    between atoms: _317  and  _318
REMARK  125  A    between atoms: _317  and  _320
REMARK  126  A    between atoms: _320  and  _321
REMARK  127  A    between atoms: _321  and  _322
REMARK  128  A    between atoms: _325  and  _327
REMARK  129  A    between atoms: _327  and  _328
REMARK  130  A    between atoms: _327  and  _330
REMARK  131  A    between atoms: _330  and  _331
REMARK  132  A    between atoms: _336  and  _338
REMARK  133  A    between atoms: _338  and  _339
REMARK  134  A    between atoms: _341  and  _343
REMARK  135  A    between atoms: _343  and  _344
REMARK  136  A    between atoms: _343  and  _346
REMARK  137  A    between atoms: _349  and  _351
REMARK  138  A    between atoms: _351  and  _352
REMARK  139  A    between atoms: _355  and  _357
REMARK  140  A    between atoms: _357  and  _358
REMARK  141  A    between atoms: _357  and  _360
REMARK  142  A    between atoms: _360  and  _361
REMARK  143  A    between atoms: _366  and  _368
REMARK  144  A    between atoms: _368  and  _369
REMARK  145  A    between atoms: _368  and  _371
REMARK  146  A    between atoms: _371  and  _372
REMARK  147  A    between atoms: _372  and  _373
REMARK  148  A    between atoms: _373  and  _374
REMARK  149  A    between atoms: _374  and  _375
REMARK  150  A    between atoms: _379  and  _381
REMARK  151  A    between atoms: _381  and  _382
REMARK  152  A    between atoms: _381  and  _384
REMARK  153  A    between atoms: _384  and  _385
REMARK  154  A    between atoms: _388  and  _390
REMARK  155  A    between atoms: _390  and  _391
REMARK  156  A    between atoms: _390  and  _393
REMARK  157  A    between atoms: _393  and  _394
REMARK  158  A    between atoms: _399  and  _401
REMARK  159  A    between atoms: _401  and  _402
REMARK  160  A    between atoms: _404  and  _406
REMARK  161  A    between atoms: _406  and  _407
REMARK  162  A    between atoms: _406  and  _409
REMARK  163  A    between atoms: _409  and  _410
REMARK  164  A    between atoms: _410  and  _411
REMARK  165  A    between atoms: _411  and  _412
REMARK  166  A    between atoms: _412  and  _413
REMARK  167  A    between atoms: _417  and  _419
REMARK  168  A    between atoms: _419  and  _420
REMARK  169  A    between atoms: _419  and  _422
REMARK  170  A    between atoms: _422  and  _423
REMARK  171  A    between atoms: _423  and  _424
REMARK  172  A    between atoms: _424  and  _425
REMARK  173  A    between atoms: _434  and  _436
REMARK  174  A    between atoms: _436  and  _437
REMARK  175  A    between atoms: _436  and  _439
REMARK  176  A    between atoms: _439  and  _440
REMARK  177  A    between atoms: _445  and  _447
REMARK  178  A    between atoms: _447  and  _448
REMARK  179  A    between atoms: _447  and  _450
REMARK  180  A    between atoms: _450  and  _451
REMARK  181  A    between atoms: _456  and  _457
REMARK  182  A    between atoms: _459  and  _461
REMARK  183  A    between atoms: _461  and  _462
REMARK  184  A    between atoms: _461  and  _464
REMARK  185  A    between atoms: _464  and  _465
REMARK  186  A    between atoms: _465  and  _466
REMARK  187  A    between atoms: _466  and  _467
REMARK  188  A    between atoms: _467  and  _468
REMARK  189  A    between atoms: _472  and  _474
REMARK  190  A    between atoms: _474  and  _475
REMARK  191  A    between atoms: _474  and  _477
REMARK  192  A    between atoms: _477  and  _478
REMARK  193  A    between atoms: _483  and  _484
REMARK  194  A    between atoms: _486  and  _488
REMARK  195  A    between atoms: _488  and  _489
REMARK  196  A    between atoms: _488  and  _491
REMARK  197  A    between atoms: _491  and  _492
REMARK  198  A    between atoms: _494  and  _496
REMARK  199  A    between atoms: _496  and  _497
REMARK  200  A    between atoms: _496  and  _499
REMARK  201  A    between atoms: _499  and  _500
REMARK  202  A    between atoms: _503  and  _505
REMARK  203  A    between atoms: _505  and  _506
REMARK  204  A    between atoms: _505  and  _508
REMARK  205  A    between atoms: _508  and  _509
REMARK  206  A    between atoms: _509  and  _510
REMARK  207  A    between atoms: _513  and  _515
REMARK  208  A    between atoms: _515  and  _516
REMARK  209  A    between atoms: _519  and  _521
REMARK  210  A    between atoms: _521  and  _522
REMARK  211  A    between atoms: _521  and  _524
REMARK  212  A    between atoms: _524  and  _525
REMARK  213  A    between atoms: _527  and  _529
REMARK  214  A    between atoms: _529  and  _530
REMARK  215  A    between atoms: _532  and  _534
REMARK  216  A    between atoms: _534  and  _535
REMARK  217  A    between atoms: _534  and  _537
REMARK  218  A    between atoms: _537  and  _538
REMARK  219  A    between atoms: _541  and  _543
REMARK  220  A    between atoms: _543  and  _544
REMARK  221  A    between atoms: _546  and  _548
REMARK  222  A    between atoms: _548  and  _549
REMARK  223  A    between atoms: _548  and  _551
REMARK  224  A    between atoms: _551  and  _552
REMARK  225  A    between atoms: _557  and  _559
REMARK  226  A    between atoms: _559  and  _560
REMARK  227  A    between atoms: _559  and  _562
REMARK  228  A    between atoms: _562  and  _563
REMARK  229  A    between atoms: _563  and  _564
REMARK  230  A    between atoms: _571  and  _572
REMARK  231  A    between atoms: _572  and  _588
REMARK  232  A    between atoms: _573  and  _575
REMARK  233  A    between atoms: _575  and  _576
REMARK  234  A    between atoms: _576  and  _577
REMARK  235  A    between atoms: _581  and  _583
REMARK  236  A    between atoms: _583  and  _584
REMARK  237  A    between atoms: _583  and  _591
REMARK  238  A    between atoms: _584  and  _585
REMARK  239  A    between atoms: _585  and  _586
REMARK  240  A    between atoms: _586  and  _587
REMARK  241  A    between atoms: _587  and  _588
REMARK  242  A    between atoms: _593  and  _595
REMARK  243  A    between atoms: _595  and  _596
REMARK  244  A    between atoms: _595  and  _598
REMARK  245  A    between atoms: _598  and  _599
REMARK  246  A    between atoms: _602  and  _604
REMARK  247  A    between atoms: _604  and  _605
REMARK  248  A    between atoms: _607  and  _609
REMARK  249  A    between atoms: _609  and  _610
REMARK  250  A    between atoms: _613  and  _615
REMARK  251  A    between atoms: _615  and  _616
REMARK  252  A    between atoms: _615  and  _618
REMARK  253  A    between atoms: _618  and  _619
REMARK  254  A    between atoms: _619  and  _620
REMARK  255  A    between atoms: _620  and  _621
REMARK  256  A    between atoms: _630  and  _632
REMARK  257  A    between atoms: _632  and  _633
REMARK  258  A    between atoms: _632  and  _635
REMARK  259  A    between atoms: _635  and  _636
REMARK  260  A    between atoms: _641  and  _642
REMARK                            x       y       z     vdW  Elec       q    Type
REMARK                         _______ _______ _______ _____ _____    ______ ____
ROOT
ATOM      1  O   HOH     1      27.180  19.110  28.870  0.00  0.00    +0.000 OA
ENDROOT
TORSDOF 0
REMARK  Name = ../refined-set-2016/3g2l/3g2l_pocket.pdb
REMARK  260 active torsions:
REMARK  status: ('A' for Active; 'I' for Inactive)
REMARK    1  A    between atoms: _1  and  _3
REMARK    2  A    between atoms: _3  and  _4
REMARK    3  A    between atoms: _3  and  _6
REMARK    4  A    between atoms: _6  and  _7
REMARK    5  A    between atoms: _12  and  _13
REMARK    6  A    between atoms: _15  and  _17
REMARK    7  A    between atoms: _17  and  _18
REMARK    8  A    between atoms: _17  and  _20
REMARK    9  A    between atoms: _20  and  _21
REMARK   10  A    between atoms: _21  and  _22
REMARK   11  A    between atoms: _25  and  _27
REMARK   12  A    between atoms: _27  and  _28
REMARK   13  A    between atoms: _27  and  _30
REMARK   14  A    between atoms: _30  and  _31
REMARK   15  A    between atoms: _36  and  _38
REMARK   16  A    between atoms: _38  and  _39
REMARK   17  A    between atoms: _41  and  _43
REMARK   18  A    between atoms: _43  and  _44
REMARK   19  A    between atoms: _46  and  _48
REMARK   20  A    between atoms: _48  and  _49
REMARK   21  A    between atoms: _48  and  _51
REMARK   22  A    between atoms: _51  and  _52
REMARK   23  A    between atoms: _55  and  _57
REMARK   24  A    between atoms: _57  and  _58
REMARK   25  A    between atoms: _60  and  _62
REMARK   26  A    between atoms: _62  and  _63
REMARK   27  A    between atoms: _62  and  _65
REMARK   28  A    between atoms: _65  and  _66
REMARK   29  A    between atoms: _66  and  _67
REMARK   30  A    between atoms: _67  and  _68
REMARK   31  A    between atoms: _77  and  _79
REMARK   32  A    between atoms: _79  and  _80
REMARK   33  A    between atoms: _79  and  _82
REMARK   34  A    between atoms: _82  and  _83
REMARK   35  A    between atoms: _86  and  _88
REMARK   36  A    between atoms: _88  and  _89
REMARK   37  A    between atoms: _92  and  _94
REMARK   38  A    between atoms: _94  and  _95
REMARK   39  A    between atoms: _94  and  _97
REMARK   40  A    between atoms: _97  and  _98
REMARK   41  A    between atoms: _104  and  _106
REMARK   42  A    between atoms: _106  and  _107
REMARK   43  A    between atoms: _106  and  _109
REMARK   44  A    between atoms: _109  and  _110
REMARK   45  A    between atoms: _115  and  _117
REMARK   46  A    between atoms: _117  and  _118
REMARK   47  A    between atoms: _117  and  _120
REMARK   48  A    between atoms: _120  and  _121
REMARK   49  A    between atoms: _124  and  _126
REMARK   50  A    between atoms: _126  and  _127
REMARK   51  A    between atoms: _126  and  _129
REMARK   52  A    between atoms: _129  and  _130
REMARK   53  A    between atoms: _135  and  _137
REMARK   54  A    between atoms: _137  and  _138
REMARK   55  A    between atoms: _137  and  _140
REMARK   56  A    between atoms: _140  and  _141
REMARK   57  A    between atoms: _147  and  _149
REMARK   58  A    between atoms: _149  and  _150
REMARK   59  A    between atoms: _149  and  _152
REMARK   60  A    between atoms: _152  and  _153
REMARK   61  A    between atoms: _159  and  _161
REMARK   62  A    between atoms: _161  and  _162
REMARK   63  A    between atoms: _161  and  _164
REMARK   64  A    between atoms: _164  and  _165
REMARK   65  A    between atoms: _165  and  _166
REMARK   66  A    between atoms: _169  and  _171
REMARK   67  A    between atoms: _171  and  _172
REMARK   68  A    between atoms: _171  and  _174
REMARK   69  A    between atoms: _174  and  _175
REMARK   70  A    between atoms: _175  and  _176
REMARK   71  A    between atoms: _176  and  _177
REMARK   72  A    between atoms: _186  and  _188
REMARK   73  A    between atoms: _188  and  _189
REMARK   74  A    between atoms: _188  and  _191
REMARK   75  A    between atoms: _191  and  _192
REMARK   76  A    between atoms: _197  and  _199
REMARK   77  A    between atoms: _199  and  _200
REMARK   78  A    between atoms: _199  and  _202
REMARK   79  A    between atoms: _202  and  _203
REMARK   80  A    between atoms: _206  and  _208
REMARK   81  A    between atoms: _208  and  _209
REMARK   82  A    between atoms: _208  and  _211
REMARK   83  A    between atoms: _211  and  _212
REMARK   84  A    between atoms: _215  and  _217
REMARK   85  A    between atoms: _217  and  _218
REMARK   86  A    between atoms: _217  and  _220
REMARK   87  A    between atoms: _220  and  _221
REMARK   88  A    between atoms: _226  and  _228
REMARK   89  A    between atoms: _228  and  _229
REMARK   90  A    between atoms: _228  and  _231
REMARK   91  A    between atoms: _231  and  _232
REMARK   92  A    between atoms: _235  and  _237
REMARK   93  A    between atoms: _237  and  _238
REMARK   94  A    between atoms: _237  and  _240
REMARK   95  A    between atoms: _240  and  _241
REMARK   96  A    between atoms: _246  and  _248
REMARK   97  A    between atoms: _248  and  _249
REMARK   98  A    between atoms: _248  and  _251
REMARK   99  A    between atoms: _251  and  _252
REMARK  100  A    between atoms: _257  and  _259
REMARK  101  A    between atoms: _259  and  _260
REMARK  102  A    between atoms: _259  and  _262
REMARK  103  A    between atoms: _262  and  _263
REMARK  104  A    between atoms: _266  and  _268
REMARK  105  A    between atoms: _268  and  _269
REMARK  106  A    between atoms: _268  and  _271
REMARK  107  A    between atoms: _274  and  _276
REMARK  108  A    between atoms: _276  and  _277
REMARK  109  A    between atoms: _276  and  _279
REMARK  110  A    between atoms: _279  and  _280
REMARK  111  A    between atoms: _284  and  _285
REMARK  112  A    between atoms: _290  and  _292
REMARK  113  A    between atoms: _292  and  _293
REMARK  114  A    between atoms: _292  and  _295
REMARK  115  A    between atoms: _295  and  _296
REMARK  116  A    between atoms: _296  and  _297
REMARK  117  A    between atoms: _300  and  _302
REMARK  118  A    between atoms: _302  and  _303
REMARK  119  A    between atoms: _306  and  _308
REMARK  120  A    between atoms: _308  and  _309
REMARK  121  A    between atoms: _308  and  _311
REMARK  122  A    between atoms: _311  and  _312
REMARK  123  A    between atoms: _315  and  _317
REMARK  124  A    between atoms: _317  and  _318
REMARK  125  A    between atoms: _317  and  _320
REMARK  126  A    between atoms: _320  and  _321
REMARK  127  A    between atoms: _321  and  _322
REMARK  128  A    between atoms: _325  and  _327
REMARK  129  A    between atoms: _327  and  _328
REMARK  130  A    between atoms: _327  and  _330
REMARK  131  A    between atoms: _330  and  _331
REMARK  132  A    between atoms: _336  and  _338
REMARK  133  A    between atoms: _338  and  _339
REMARK  134  A    between atoms: _341  and  _343
REMARK  135  A    between atoms: _343  and  _344
REMARK  136  A    between atoms: _343  and  _346
REMARK  137  A    between atoms: _349  and  _351
REMARK  138  A    between atoms: _351  and  _352
REMARK  139  A    between atoms: _355  and  _357
REMARK  140  A    between atoms: _357  and  _358
REMARK  141  A    between atoms: _357  and  _360
REMARK  142  A    between atoms: _360  and  _361
REMARK  143  A    between atoms: _366  and  _368
REMARK  144  A    between atoms: _368  and  _369
REMARK  145  A    between atoms: _368  and  _371
REMARK  146  A    between atoms: _371  and  _372
REMARK  147  A    between atoms: _372  and  _373
REMARK  148  A    between atoms: _373  and  _374
REMARK  149  A    between atoms: _374  and  _375
REMARK  150  A    between atoms: _379  and  _381
REMARK  151  A    between atoms: _381  and  _382
REMARK  152  A    between atoms: _381  and  _384
REMARK  153  A    between atoms: _384  and  _385
REMARK  154  A    between atoms: _388  and  _390
REMARK  155  A    between atoms: _390  and  _391
REMARK  156  A    between atoms: _390  and  _393
REMARK  157  A    between atoms: _393  and  _394
REMARK  158  A    between atoms: _399  and  _401
REMARK  159  A    between atoms: _401  and  _402
REMARK  160  A    between atoms: _404  and  _406
REMARK  161  A    between atoms: _406  and  _407
REMARK  162  A    between atoms: _406  and  _409
REMARK  163  A    between atoms: _409  and  _410
REMARK  164  A    between atoms: _410  and  _411
REMARK  165  A    between atoms: _411  and  _412
REMARK  166  A    between atoms: _412  and  _413
REMARK  167  A    between atoms: _417  and  _419
REMARK  168  A    between atoms: _419  and  _420
REMARK  169  A    between atoms: _419  and  _422
REMARK  170  A    between atoms: _422  and  _423
REMARK  171  A    between atoms: _423  and  _424
REMARK  172  A    between atoms: _424  and  _425
REMARK  173  A    between atoms: _434  and  _436
REMARK  174  A    between atoms: _436  and  _437
REMARK  175  A    between atoms: _436  and  _439
REMARK  176  A    between atoms: _439  and  _440
REMARK  177  A    between atoms: _445  and  _447
REMARK  178  A    between atoms: _447  and  _448
REMARK  179  A    between atoms: _447  and  _450
REMARK  180  A    between atoms: _450  and  _451
REMARK  181  A    between atoms: _456  and  _457
REMARK  182  A    between atoms: _459  and  _461
REMARK  183  A    between atoms: _461  and  _462
REMARK  184  A    between atoms: _461  and  _464
REMARK  185  A    between atoms: _464  and  _465
REMARK  186  A    between atoms: _465  and  _466
REMARK  187  A    between atoms: _466  and  _467
REMARK  188  A    between atoms: _467  and  _468
REMARK  189  A    between atoms: _472  and  _474
REMARK  190  A    between atoms: _474  and  _475
REMARK  191  A    between atoms: _474  and  _477
REMARK  192  A    between atoms: _477  and  _478
REMARK  193  A    between atoms: _483  and  _484
REMARK  194  A    between atoms: _486  and  _488
REMARK  195  A    between atoms: _488  and  _489
REMARK  196  A    between atoms: _488  and  _491
REMARK  197  A    between atoms: _491  and  _492
REMARK  198  A    between atoms: _494  and  _496
REMARK  199  A    between atoms: _496  and  _497
REMARK  200  A    between atoms: _496  and  _499
REMARK  201  A    between atoms: _499  and  _500
REMARK  202  A    between atoms: _503  and  _505
REMARK  203  A    between atoms: _505  and  _506
REMARK  204  A    between atoms: _505  and  _508
REMARK  205  A    between atoms: _508  and  _509
REMARK  206  A    between atoms: _509  and  _510
REMARK  207  A    between atoms: _513  and  _515
REMARK  208  A    between atoms: _515  and  _516
REMARK  209  A    between atoms: _519  and  _521
REMARK  210  A    between atoms: _521  and  _522
REMARK  211  A    between atoms: _521  and  _524
REMARK  212  A    between atoms: _524  and  _525
REMARK  213  A    between atoms: _527  and  _529
REMARK  214  A    between atoms: _529  and  _530
REMARK  215  A    between atoms: _532  and  _534
REMARK  216  A    between atoms: _534  and  _535
REMARK  217  A    between atoms: _534  and  _537
REMARK  218  A    between atoms: _537  and  _538
REMARK  219  A    between atoms: _541  and  _543
REMARK  220  A    between atoms: _543  and  _544
REMARK  221  A    between atoms: _546  and  _548
REMARK  222  A    between atoms: _548  and  _549
REMARK  223  A    between atoms: _548  and  _551
REMARK  224  A    between atoms: _551  and  _552
REMARK  225  A    between atoms: _557  and  _559
REMARK  226  A    between atoms: _559  and  _560
REMARK  227  A    between atoms: _559  and  _562
REMARK  228  A    between atoms: _562  and  _563
REMARK  229  A    between atoms: _563  and  _564
REMARK  230  A    between atoms: _571  and  _572
REMARK  231  A    between atoms: _572  and  _588
REMARK  232  A    between atoms: _573  and  _575
REMARK  233  A    between atoms: _575  and  _576
REMARK  234  A    between atoms: _576  and  _577
REMARK  235  A    between atoms: _581  and  _583
REMARK  236  A    between atoms: _583  and  _584
REMARK  237  A    between atoms: _583  and  _591
REMARK  238  A    between atoms: _584  and  _585
REMARK  239  A    between atoms: _585  and  _586
REMARK  240  A    between atoms: _586  and  _587
REMARK  241  A    between atoms: _587  and  _588
REMARK  242  A    between atoms: _593  and  _595
REMARK  243  A    between atoms: _595  and  _596
REMARK  244  A    between atoms: _595  and  _598
REMARK  245  A    between atoms: _598  and  _599
REMARK  246  A    between atoms: _602  and  _604
REMARK  247  A    between atoms: _604  and  _605
REMARK  248  A    between atoms: _607  and  _609
REMARK  249  A    between atoms: _609  and  _610
REMARK  250  A    between atoms: _613  and  _615
REMARK  251  A    between atoms: _615  and  _616
REMARK  252  A    between atoms: _615  and  _618
REMARK  253  A    between atoms: _618  and  _619
REMARK  254  A    between atoms: _619  and  _620
REMARK  255  A    between atoms: _620  and  _621
REMARK  256  A    between atoms: _630  and  _632
REMARK  257  A    between atoms: _632  and  _633
REMARK  258  A    between atoms: _632  and  _635
REMARK  259  A    between atoms: _635  and  _636
REMARK  260  A    between atoms: _641  and  _642
REMARK                            x       y       z     vdW  Elec       q    Type
REMARK                         _______ _______ _______ _____ _____    ______ ____
ROOT
ATOM      1  O   HOH     1      26.394  16.592  28.596  0.00  0.00    +0.000 OA
ENDROOT
TORSDOF 0
REMARK  Name = ../refined-set-2016/3g2l/3g2l_pocket.pdb
REMARK  260 active torsions:
REMARK  status: ('A' for Active; 'I' for Inactive)
REMARK    1  A    between atoms: _1  and  _3
REMARK    2  A    between atoms: _3  and  _4
REMARK    3  A    between atoms: _3  and  _6
REMARK    4  A    between atoms: _6  and  _7
REMARK    5  A    between atoms: _12  and  _13
REMARK    6  A    between atoms: _15  and  _17
REMARK    7  A    between atoms: _17  and  _18
REMARK    8  A    between atoms: _17  and  _20
REMARK    9  A    between atoms: _20  and  _21
REMARK   10  A    between atoms: _21  and  _22
REMARK   11  A    between atoms: _25  and  _27
REMARK   12  A    between atoms: _27  and  _28
REMARK   13  A    between atoms: _27  and  _30
REMARK   14  A    between atoms: _30  and  _31
REMARK   15  A    between atoms: _36  and  _38
REMARK   16  A    between atoms: _38  and  _39
REMARK   17  A    between atoms: _41  and  _43
REMARK   18  A    between atoms: _43  and  _44
REMARK   19  A    between atoms: _46  and  _48
REMARK   20  A    between atoms: _48  and  _49
REMARK   21  A    between atoms: _48  and  _51
REMARK   22  A    between atoms: _51  and  _52
REMARK   23  A    between atoms: _55  and  _57
REMARK   24  A    between atoms: _57  and  _58
REMARK   25  A    between atoms: _60  and  _62
REMARK   26  A    between atoms: _62  and  _63
REMARK   27  A    between atoms: _62  and  _65
REMARK   28  A    between atoms: _65  and  _66
REMARK   29  A    between atoms: _66  and  _67
REMARK   30  A    between atoms: _67  and  _68
REMARK   31  A    between atoms: _77  and  _79
REMARK   32  A    between atoms: _79  and  _80
REMARK   33  A    between atoms: _79  and  _82
REMARK   34  A    between atoms: _82  and  _83
REMARK   35  A    between atoms: _86  and  _88
REMARK   36  A    between atoms: _88  and  _89
REMARK   37  A    between atoms: _92  and  _94
REMARK   38  A    between atoms: _94  and  _95
REMARK   39  A    between atoms: _94  and  _97
REMARK   40  A    between atoms: _97  and  _98
REMARK   41  A    between atoms: _104  and  _106
REMARK   42  A    between atoms: _106  and  _107
REMARK   43  A    between atoms: _106  and  _109
REMARK   44  A    between atoms: _109  and  _110
REMARK   45  A    between atoms: _115  and  _117
REMARK   46  A    between atoms: _117  and  _118
REMARK   47  A    between atoms: _117  and  _120
REMARK   48  A    between atoms: _120  and  _121
REMARK   49  A    between atoms: _124  and  _126
REMARK   50  A    between atoms: _126  and  _127
REMARK   51  A    between atoms: _126  and  _129
REMARK   52  A    between atoms: _129  and  _130
REMARK   53  A    between atoms: _135  and  _137
REMARK   54  A    between atoms: _137  and  _138
REMARK   55  A    between atoms: _137  and  _140
REMARK   56  A    between atoms: _140  and  _141
REMARK   57  A    between atoms: _147  and  _149
REMARK   58  A    between atoms: _149  and  _150
REMARK   59  A    between atoms: _149  and  _152
REMARK   60  A    between atoms: _152  and  _153
REMARK   61  A    between atoms: _159  and  _161
REMARK   62  A    between atoms: _161  and  _162
REMARK   63  A    between atoms: _161  and  _164
REMARK   64  A    between atoms: _164  and  _165
REMARK   65  A    between atoms: _165  and  _166
REMARK   66  A    between atoms: _169  and  _171
REMARK   67  A    between atoms: _171  and  _172
REMARK   68  A    between atoms: _171  and  _174
REMARK   69  A    between atoms: _174  and  _175
REMARK   70  A    between atoms: _175  and  _176
REMARK   71  A    between atoms: _176  and  _177
REMARK   72  A    between atoms: _186  and  _188
REMARK   73  A    between atoms: _188  and  _189
REMARK   74  A    between atoms: _188  and  _191
REMARK   75  A    between atoms: _191  and  _192
REMARK   76  A    between atoms: _197  and  _199
REMARK   77  A    between atoms: _199  and  _200
REMARK   78  A    between atoms: _199  and  _202
REMARK   79  A    between atoms: _202  and  _203
REMARK   80  A    between atoms: _206  and  _208
REMARK   81  A    between atoms: _208  and  _209
REMARK   82  A    between atoms: _208  and  _211
REMARK   83  A    between atoms: _211  and  _212
REMARK   84  A    between atoms: _215  and  _217
REMARK   85  A    between atoms: _217  and  _218
REMARK   86  A    between atoms: _217  and  _220
REMARK   87  A    between atoms: _220  and  _221
REMARK   88  A    between atoms: _226  and  _228
REMARK   89  A    between atoms: _228  and  _229
REMARK   90  A    between atoms: _228  and  _231
REMARK   91  A    between atoms: _231  and  _232
REMARK   92  A    between atoms: _235  and  _237
REMARK   93  A    between atoms: _237  and  _238
REMARK   94  A    between atoms: _237  and  _240
REMARK   95  A    between atoms: _240  and  _241
REMARK   96  A    between atoms: _246  and  _248
REMARK   97  A    between atoms: _248  and  _249
REMARK   98  A    between atoms: _248  and  _251
REMARK   99  A    between atoms: _251  and  _252
REMARK  100  A    between atoms: _257  and  _259
REMARK  101  A    between atoms: _259  and  _260
REMARK  102  A    between atoms: _259  and  _262
REMARK  103  A    between atoms: _262  and  _263
REMARK  104  A    between atoms: _266  and  _268
REMARK  105  A    between atoms: _268  and  _269
REMARK  106  A    between atoms: _268  and  _271
REMARK  107  A    between atoms: _274  and  _276
REMARK  108  A    between atoms: _276  and  _277
REMARK  109  A    between atoms: _276  and  _279
REMARK  110  A    between atoms: _279  and  _280
REMARK  111  A    between atoms: _284  and  _285
REMARK  112  A    between atoms: _290  and  _292
REMARK  113  A    between atoms: _292  and  _293
REMARK  114  A    between atoms: _292  and  _295
REMARK  115  A    between atoms: _295  and  _296
REMARK  116  A    between atoms: _296  and  _297
REMARK  117  A    between atoms: _300  and  _302
REMARK  118  A    between atoms: _302  and  _303
REMARK  119  A    between atoms: _306  and  _308
REMARK  120  A    between atoms: _308  and  _309
REMARK  121  A    between atoms: _308  and  _311
REMARK  122  A    between atoms: _311  and  _312
REMARK  123  A    between atoms: _315  and  _317
REMARK  124  A    between atoms: _317  and  _318
REMARK  125  A    between atoms: _317  and  _320
REMARK  126  A    between atoms: _320  and  _321
REMARK  127  A    between atoms: _321  and  _322
REMARK  128  A    between atoms: _325  and  _327
REMARK  129  A    between atoms: _327  and  _328
REMARK  130  A    between atoms: _327  and  _330
REMARK  131  A    between atoms: _330  and  _331
REMARK  132  A    between atoms: _336  and  _338
REMARK  133  A    between atoms: _338  and  _339
REMARK  134  A    between atoms: _341  and  _343
REMARK  135  A    between atoms: _343  and  _344
REMARK  136  A    between atoms: _343  and  _346
REMARK  137  A    between atoms: _349  and  _351
REMARK  138  A    between atoms: _351  and  _352
REMARK  139  A    between atoms: _355  and  _357
REMARK  140  A    between atoms: _357  and  _358
REMARK  141  A    between atoms: _357  and  _360
REMARK  142  A    between atoms: _360  and  _361
REMARK  143  A    between atoms: _366  and  _368
REMARK  144  A    between atoms: _368  and  _369
REMARK  145  A    between atoms: _368  and  _371
REMARK  146  A    between atoms: _371  and  _372
REMARK  147  A    between atoms: _372  and  _373
REMARK  148  A    between atoms: _373  and  _374
REMARK  149  A    between atoms: _374  and  _375
REMARK  150  A    between atoms: _379  and  _381
REMARK  151  A    between atoms: _381  and  _382
REMARK  152  A    between atoms: _381  and  _384
REMARK  153  A    between atoms: _384  and  _385
REMARK  154  A    between atoms: _388  and  _390
REMARK  155  A    between atoms: _390  and  _391
REMARK  156  A    between atoms: _390  and  _393
REMARK  157  A    between atoms: _393  and  _394
REMARK  158  A    between atoms: _399  and  _401
REMARK  159  A    between atoms: _401  and  _402
REMARK  160  A    between atoms: _404  and  _406
REMARK  161  A    between atoms: _406  and  _407
REMARK  162  A    between atoms: _406  and  _409
REMARK  163  A    between atoms: _409  and  _410
REMARK  164  A    between atoms: _410  and  _411
REMARK  165  A    between atoms: _411  and  _412
REMARK  166  A    between atoms: _412  and  _413
REMARK  167  A    between atoms: _417  and  _419
REMARK  168  A    between atoms: _419  and  _420
REMARK  169  A    between atoms: _419  and  _422
REMARK  170  A    between atoms: _422  and  _423
REMARK  171  A    between atoms: _423  and  _424
REMARK  172  A    between atoms: _424  and  _425
REMARK  173  A    between atoms: _434  and  _436
REMARK  174  A    between atoms: _436  and  _437
REMARK  175  A    between atoms: _436  and  _439
REMARK  176  A    between atoms: _439  and  _440
REMARK  177  A    between atoms: _445  and  _447
REMARK  178  A    between atoms: _447  and  _448
REMARK  179  A    between atoms: _447  and  _450
REMARK  180  A    between atoms: _450  and  _451
REMARK  181  A    between atoms: _456  and  _457
REMARK  182  A    between atoms: _459  and  _461
REMARK  183  A    between atoms: _461  and  _462
REMARK  184  A    between atoms: _461  and  _464
REMARK  185  A    between atoms: _464  and  _465
REMARK  186  A    between atoms: _465  and  _466
REMARK  187  A    between atoms: _466  and  _467
REMARK  188  A    between atoms: _467  and  _468
REMARK  189  A    between atoms: _472  and  _474
REMARK  190  A    between atoms: _474  and  _475
REMARK  191  A    between atoms: _474  and  _477
REMARK  192  A    between atoms: _477  and  _478
REMARK  193  A    between atoms: _483  and  _484
REMARK  194  A    between atoms: _486  and  _488
REMARK  195  A    between atoms: _488  and  _489
REMARK  196  A    between atoms: _488  and  _491
REMARK  197  A    between atoms: _491  and  _492
REMARK  198  A    between atoms: _494  and  _496
REMARK  199  A    between atoms: _496  and  _497
REMARK  200  A    between atoms: _496  and  _499
REMARK  201  A    between atoms: _499  and  _500
REMARK  202  A    between atoms: _503  and  _505
REMARK  203  A    between atoms: _505  and  _506
REMARK  204  A    between atoms: _505  and  _508
REMARK  205  A    between atoms: _508  and  _509
REMARK  206  A    between atoms: _509  and  _510
REMARK  207  A    between atoms: _513  and  _515
REMARK  208  A    between atoms: _515  and  _516
REMARK  209  A    between atoms: _519  and  _521
REMARK  210  A    between atoms: _521  and  _522
REMARK  211  A    between atoms: _521  and  _524
REMARK  212  A    between atoms: _524  and  _525
REMARK  213  A    between atoms: _527  and  _529
REMARK  214  A    between atoms: _529  and  _530
REMARK  215  A    between atoms: _532  and  _534
REMARK  216  A    between atoms: _534  and  _535
REMARK  217  A    between atoms: _534  and  _537
REMARK  218  A    between atoms: _537  and  _538
REMARK  219  A    between atoms: _541  and  _543
REMARK  220  A    between atoms: _543  and  _544
REMARK  221  A    between atoms: _546  and  _548
REMARK  222  A    between atoms: _548  and  _549
REMARK  223  A    between atoms: _548  and  _551
REMARK  224  A    between atoms: _551  and  _552
REMARK  225  A    between atoms: _557  and  _559
REMARK  226  A    between atoms: _559  and  _560
REMARK  227  A    between atoms: _559  and  _562
REMARK  228  A    between atoms: _562  and  _563
REMARK  229  A    between atoms: _563  and  _564
REMARK  230  A    between atoms: _571  and  _572
REMARK  231  A    between atoms: _572  and  _588
REMARK  232  A    between atoms: _573  and  _575
REMARK  233  A    between atoms: _575  and  _576
REMARK  234  A    between atoms: _576  and  _577
REMARK  235  A    between atoms: _581  and  _583
REMARK  236  A    between atoms: _583  and  _584
REMARK  237  A    between atoms: _583  and  _591
REMARK  238  A    between atoms: _584  and  _585
REMARK  239  A    between atoms: _585  and  _586
REMARK  240  A    between atoms: _586  and  _587
REMARK  241  A    between atoms: _587  and  _588
REMARK  242  A    between atoms: _593  and  _595
REMARK  243  A    between atoms: _595  and  _596
REMARK  244  A    between atoms: _595  and  _598
REMARK  245  A    between atoms: _598  and  _599
REMARK  246  A    between atoms: _602  and  _604
REMARK  247  A    between atoms: _604  and  _605
REMARK  248  A    between atoms: _607  and  _609
REMARK  249  A    between atoms: _609  and  _610
REMARK  250  A    between atoms: _613  and  _615
REMARK  251  A    between atoms: _615  and  _616
REMARK  252  A    between atoms: _615  and  _618
REMARK  253  A    between atoms: _618  and  _619
REMARK  254  A    between atoms: _619  and  _620
REMARK  255  A    between atoms: _620  and  _621
REMARK  256  A    between atoms: _630  and  _632
REMARK  257  A    between atoms: _632  and  _633
REMARK  258  A    between atoms: _632  and  _635
REMARK  259  A    between atoms: _635  and  _636
REMARK  260  A    between atoms: _641  and  _642
REMARK                            x       y       z     vdW  Elec       q    Type
REMARK                         _______ _______ _______ _____ _____    ______ ____
ROOT
ATOM      1  O   HOH     1      29.239  21.645  26.282  0.00  0.00    +0.000 OA
ENDROOT
TORSDOF 0
