REMARK  Name = ../refined-set-2016/4bb9/4bb9_pocket.pdb
REMARK  221 active torsions:
REMARK  status: ('A' for Active; 'I' for Inactive)
REMARK    1  A    between atoms: _1  and  _3
REMARK    2  A    between atoms: _3  and  _4
REMARK    3  A    between atoms: _3  and  _6
REMARK    4  A    between atoms: _6  and  _7
REMARK    5  A    between atoms: _10  and  _12
REMARK    6  A    between atoms: _12  and  _13
REMARK    7  A    between atoms: _12  and  _15
REMARK    8  A    between atoms: _15  and  _16
REMARK    9  A    between atoms: _16  and  _17
REMARK   10  A    between atoms: _20  and  _22
REMARK   11  A    between atoms: _22  and  _23
REMARK   12  A    between atoms: _22  and  _25
REMARK   13  A    between atoms: _25  and  _26
REMARK   14  A    between atoms: _28  and  _30
REMARK   15  A    between atoms: _30  and  _31
REMARK   16  A    between atoms: _33  and  _35
REMARK   17  A    between atoms: _35  and  _36
REMARK   18  A    between atoms: _38  and  _40
REMARK   19  A    between atoms: _40  and  _41
REMARK   20  A    between atoms: _43  and  _45
REMARK   21  A    between atoms: _45  and  _46
REMARK   22  A    between atoms: _45  and  _48
REMARK   23  A    between atoms: _48  and  _49
REMARK   24  A    between atoms: _52  and  _54
REMARK   25  A    between atoms: _54  and  _55
REMARK   26  A    between atoms: _54  and  _57
REMARK   27  A    between atoms: _57  and  _58
REMARK   28  A    between atoms: _60  and  _62
REMARK   29  A    between atoms: _62  and  _63
REMARK   30  A    between atoms: _65  and  _67
REMARK   31  A    between atoms: _67  and  _68
REMARK   32  A    between atoms: _67  and  _70
REMARK   33  A    between atoms: _70  and  _71
REMARK   34  A    between atoms: _71  and  _72
REMARK   35  A    between atoms: _72  and  _73
REMARK   36  A    between atoms: _82  and  _84
REMARK   37  A    between atoms: _84  and  _85
REMARK   38  A    between atoms: _84  and  _87
REMARK   39  A    between atoms: _87  and  _88
REMARK   40  A    between atoms: _88  and  _89
REMARK   41  A    between atoms: _91  and  _93
REMARK   42  A    between atoms: _93  and  _94
REMARK   43  A    between atoms: _97  and  _99
REMARK   44  A    between atoms: _99  and  _100
REMARK   45  A    between atoms: _99  and  _102
REMARK   46  A    between atoms: _102  and  _103
REMARK   47  A    between atoms: _105  and  _107
REMARK   48  A    between atoms: _107  and  _108
REMARK   49  A    between atoms: _107  and  _110
REMARK   50  A    between atoms: _110  and  _111
REMARK   51  A    between atoms: _111  and  _112
REMARK   52  A    between atoms: _112  and  _113
REMARK   53  A    between atoms: _122  and  _124
REMARK   54  A    between atoms: _124  and  _125
REMARK   55  A    between atoms: _124  and  _127
REMARK   56  A    between atoms: _127  and  _128
REMARK   57  A    between atoms: _128  and  _129
REMARK   58  A    between atoms: _132  and  _134
REMARK   59  A    between atoms: _134  and  _135
REMARK   60  A    between atoms: _137  and  _139
REMARK   61  A    between atoms: _139  and  _140
REMARK   62  A    between atoms: _139  and  _142
REMARK   63  A    between atoms: _142  and  _143
REMARK   64  A    between atoms: _146  and  _148
REMARK   65  A    between atoms: _148  and  _149
REMARK   66  A    between atoms: _148  and  _151
REMARK   67  A    between atoms: _151  and  _152
REMARK   68  A    between atoms: _152  and  _153
REMARK   69  A    between atoms: _156  and  _158
REMARK   70  A    between atoms: _158  and  _159
REMARK   71  A    between atoms: _158  and  _161
REMARK   72  A    between atoms: _161  and  _162
REMARK   73  A    between atoms: _165  and  _167
REMARK   74  A    between atoms: _167  and  _168
REMARK   75  A    between atoms: _167  and  _170
REMARK   76  A    between atoms: _170  and  _171
REMARK   77  A    between atoms: _174  and  _176
REMARK   78  A    between atoms: _176  and  _177
REMARK   79  A    between atoms: _176  and  _179
REMARK   80  A    between atoms: _179  and  _180
REMARK   81  A    between atoms: _182  and  _184
REMARK   82  A    between atoms: _184  and  _185
REMARK   83  A    between atoms: _184  and  _187
REMARK   84  A    between atoms: _190  and  _192
REMARK   85  A    between atoms: _192  and  _193
REMARK   86  A    between atoms: _195  and  _197
REMARK   87  A    between atoms: _197  and  _198
REMARK   88  A    between atoms: _197  and  _200
REMARK   89  A    between atoms: _200  and  _201
REMARK   90  A    between atoms: _204  and  _206
REMARK   91  A    between atoms: _206  and  _207
REMARK   92  A    between atoms: _206  and  _209
REMARK   93  A    between atoms: _209  and  _210
REMARK   94  A    between atoms: _212  and  _214
REMARK   95  A    between atoms: _214  and  _215
REMARK   96  A    between atoms: _219  and  _220
REMARK   97  A    between atoms: _225  and  _227
REMARK   98  A    between atoms: _227  and  _228
REMARK   99  A    between atoms: _227  and  _230
REMARK  100  A    between atoms: _230  and  _231
REMARK  101  A    between atoms: _237  and  _239
REMARK  102  A    between atoms: _239  and  _240
REMARK  103  A    between atoms: _239  and  _242
REMARK  104  A    between atoms: _245  and  _247
REMARK  105  A    between atoms: _247  and  _248
REMARK  106  A    between atoms: _251  and  _253
REMARK  107  A    between atoms: _253  and  _254
REMARK  108  A    between atoms: _253  and  _256
REMARK  109  A    between atoms: _259  and  _261
REMARK  110  A    between atoms: _261  and  _262
REMARK  111  A    between atoms: _264  and  _266
REMARK  112  A    between atoms: _266  and  _267
REMARK  113  A    between atoms: _266  and  _269
REMARK  114  A    between atoms: _269  and  _270
REMARK  115  A    between atoms: _276  and  _278
REMARK  116  A    between atoms: _278  and  _279
REMARK  117  A    between atoms: _278  and  _281
REMARK  118  A    between atoms: _281  and  _282
REMARK  119  A    between atoms: _287  and  _289
REMARK  120  A    between atoms: _289  and  _290
REMARK  121  A    between atoms: _289  and  _292
REMARK  122  A    between atoms: _292  and  _293
REMARK  123  A    between atoms: _293  and  _294
REMARK  124  A    between atoms: _294  and  _295
REMARK  125  A    between atoms: _304  and  _306
REMARK  126  A    between atoms: _306  and  _307
REMARK  127  A    between atoms: _306  and  _309
REMARK  128  A    between atoms: _309  and  _310
REMARK  129  A    between atoms: _316  and  _318
REMARK  130  A    between atoms: _318  and  _319
REMARK  131  A    between atoms: _321  and  _323
REMARK  132  A    between atoms: _323  and  _324
REMARK  133  A    between atoms: _323  and  _326
REMARK  134  A    between atoms: _326  and  _327
REMARK  135  A    between atoms: _329  and  _331
REMARK  136  A    between atoms: _331  and  _332
REMARK  137  A    between atoms: _331  and  _334
REMARK  138  A    between atoms: _334  and  _335
REMARK  139  A    between atoms: _337  and  _339
REMARK  140  A    between atoms: _339  and  _340
REMARK  141  A    between atoms: _339  and  _342
REMARK  142  A    between atoms: _342  and  _343
REMARK  143  A    between atoms: _343  and  _344
REMARK  144  A    between atoms: _344  and  _345
REMARK  145  A    between atoms: _354  and  _356
REMARK  146  A    between atoms: _356  and  _357
REMARK  147  A    between atoms: _356  and  _359
REMARK  148  A    between atoms: _359  and  _360
REMARK  149  A    between atoms: _360  and  _361
REMARK  150  A    between atoms: _363  and  _365
REMARK  151  A    between atoms: _365  and  _366
REMARK  152  A    between atoms: _368  and  _370
REMARK  153  A    between atoms: _370  and  _371
REMARK  154  A    between atoms: _373  and  _375
REMARK  155  A    between atoms: _375  and  _376
REMARK  156  A    between atoms: _375  and  _378
REMARK  157  A    between atoms: _378  and  _379
REMARK  158  A    between atoms: _382  and  _384
REMARK  159  A    between atoms: _384  and  _385
REMARK  160  A    between atoms: _384  and  _387
REMARK  161  A    between atoms: _390  and  _392
REMARK  162  A    between atoms: _392  and  _393
REMARK  163  A    between atoms: _392  and  _395
REMARK  164  A    between atoms: _395  and  _396
REMARK  165  A    between atoms: _396  and  _397
REMARK  166  A    between atoms: _400  and  _402
REMARK  167  A    between atoms: _402  and  _403
REMARK  168  A    between atoms: _402  and  _405
REMARK  169  A    between atoms: _405  and  _406
REMARK  170  A    between atoms: _411  and  _413
REMARK  171  A    between atoms: _413  and  _414
REMARK  172  A    between atoms: _413  and  _416
REMARK  173  A    between atoms: _416  and  _417
REMARK  174  A    between atoms: _420  and  _422
REMARK  175  A    between atoms: _422  and  _423
REMARK  176  A    between atoms: _422  and  _425
REMARK  177  A    between atoms: _425  and  _426
REMARK  178  A    between atoms: _426  and  _427
REMARK  179  A    between atoms: _429  and  _431
REMARK  180  A    between atoms: _431  and  _432
REMARK  181  A    between atoms: _431  and  _434
REMARK  182  A    between atoms: _434  and  _435
REMARK  183  A    between atoms: _438  and  _440
REMARK  184  A    between atoms: _440  and  _441
REMARK  185  A    between atoms: _440  and  _443
REMARK  186  A    between atoms: _443  and  _444
REMARK  187  A    between atoms: _444  and  _445
REMARK  188  A    between atoms: _445  and  _446
REMARK  189  A    between atoms: _455  and  _457
REMARK  190  A    between atoms: _457  and  _458
REMARK  191  A    between atoms: _457  and  _460
REMARK  192  A    between atoms: _460  and  _461
REMARK  193  A    between atoms: _463  and  _465
REMARK  194  A    between atoms: _465  and  _466
REMARK  195  A    between atoms: _465  and  _468
REMARK  196  A    between atoms: _468  and  _469
REMARK  197  A    between atoms: _474  and  _476
REMARK  198  A    between atoms: _476  and  _477
REMARK  199  A    between atoms: _476  and  _479
REMARK  200  A    between atoms: _479  and  _480
REMARK  201  A    between atoms: _482  and  _484
REMARK  202  A    between atoms: _484  and  _485
REMARK  203  A    between atoms: _484  and  _487
REMARK  204  A    between atoms: _487  and  _488
REMARK  205  A    between atoms: _488  and  _489
REMARK  206  A    between atoms: _489  and  _490
REMARK  207  A    between atoms: _490  and  _491
REMARK  208  A    between atoms: _495  and  _497
REMARK  209  A    between atoms: _497  and  _498
REMARK  210  A    between atoms: _497  and  _500
REMARK  211  A    between atoms: _500  and  _501
REMARK  212  A    between atoms: _504  and  _506
REMARK  213  A    between atoms: _506  and  _507
REMARK  214  A    between atoms: _506  and  _509
REMARK  215  A    between atoms: _509  and  _510
REMARK  216  A    between atoms: _516  and  _518
REMARK  217  A    between atoms: _518  and  _519
REMARK  218  A    between atoms: _518  and  _521
REMARK  219  A    between atoms: _521  and  _522
REMARK  220  A    between atoms: _522  and  _523
REMARK  221  A    between atoms: _523  and  _524
REMARK                            x       y       z     vdW  Elec       q    Type
REMARK                         _______ _______ _______ _____ _____    ______ ____
ROOT
ATOM      1  C   THR A   1      48.549  24.653  24.208  0.00  0.00    +0.241 C 
ATOM      2  N   GLU A   2      48.650  23.313  24.049  0.00  0.00    -0.298 N 
ATOM      3  H   GLU A   2      49.494  22.824  24.411  0.00  0.00    +0.150 HD
ATOM      4  O   THR A   1      47.564  25.305  23.823  0.00  0.00    -0.274 OA
ENDROOT
BRANCH   1   5
ATOM      5  CA  THR A   1      49.701  25.372  24.924  0.00  0.00    +0.172 C 
BRANCH   5   6
ATOM      6  N   THR A   1      50.501  24.481  25.771  0.00  0.00    -0.236 NA
ATOM      7  H   THR A   1      51.507  24.336  25.550  0.00  0.00    +0.142 HD
ENDBRANCH   5   6
BRANCH   5   8
ATOM      8  CB  THR A   1      50.585  26.100  23.921  0.00  0.00    +0.135 C 
ATOM      9  CG2 THR A   1      51.555  27.071  24.577  0.00  0.00    +0.034 C 
BRANCH   8  10
ATOM     10  OG1 THR A   1      51.280  25.131  23.149  0.00  0.00    -0.383 OA
ATOM     11  HG1 THR A   1      50.627  24.560  22.673  0.00  0.00    +0.210 HD
ENDBRANCH   8  10
ENDBRANCH   5   8
ENDBRANCH   1   5
BRANCH   2  12
ATOM     12  CA  GLU A   2      47.610  22.532  23.384  0.00  0.00    +0.137 C 
BRANCH  12  13
ATOM     13  C   GLU A   2      46.707  21.785  24.362  0.00  0.00    +0.227 C 
ATOM     14  O   GLU A   2      45.676  21.240  23.953  0.00  0.00    -0.286 OA
ENDBRANCH  12  13
BRANCH  12  15
ATOM     15  CB  GLU A   2      48.247  21.501  22.422  0.00  0.00    +0.039 C 
BRANCH  15  16
ATOM     16  CG  GLU A   2      48.929  22.124  21.217  0.00  0.00    +0.116 C 
BRANCH  16  17
ATOM     17  CD  GLU A   2      47.998  22.793  20.216  0.00  0.00    +0.365 C 
ATOM     18  OE2 GLU A   2      46.853  22.319  20.032  0.00  0.00    -0.246 OA
ATOM     19  OE1 GLU A   2      48.402  23.835  19.658  0.00  0.00    -0.246 OA
ENDBRANCH  16  17
ENDBRANCH  15  16
ENDBRANCH  12  15
ENDBRANCH   2  12
TORSDOF 9
REMARK  Name = ../refined-set-2016/4bb9/4bb9_pocket.pdb
REMARK  221 active torsions:
REMARK  status: ('A' for Active; 'I' for Inactive)
REMARK    1  A    between atoms: _1  and  _3
REMARK    2  A    between atoms: _3  and  _4
REMARK    3  A    between atoms: _3  and  _6
REMARK    4  A    between atoms: _6  and  _7
REMARK    5  A    between atoms: _10  and  _12
REMARK    6  A    between atoms: _12  and  _13
REMARK    7  A    between atoms: _12  and  _15
REMARK    8  A    between atoms: _15  and  _16
REMARK    9  A    between atoms: _16  and  _17
REMARK   10  A    between atoms: _20  and  _22
REMARK   11  A    between atoms: _22  and  _23
REMARK   12  A    between atoms: _22  and  _25
REMARK   13  A    between atoms: _25  and  _26
REMARK   14  A    between atoms: _28  and  _30
REMARK   15  A    between atoms: _30  and  _31
REMARK   16  A    between atoms: _33  and  _35
REMARK   17  A    between atoms: _35  and  _36
REMARK   18  A    between atoms: _38  and  _40
REMARK   19  A    between atoms: _40  and  _41
REMARK   20  A    between atoms: _43  and  _45
REMARK   21  A    between atoms: _45  and  _46
REMARK   22  A    between atoms: _45  and  _48
REMARK   23  A    between atoms: _48  and  _49
REMARK   24  A    between atoms: _52  and  _54
REMARK   25  A    between atoms: _54  and  _55
REMARK   26  A    between atoms: _54  and  _57
REMARK   27  A    between atoms: _57  and  _58
REMARK   28  A    between atoms: _60  and  _62
REMARK   29  A    between atoms: _62  and  _63
REMARK   30  A    between atoms: _65  and  _67
REMARK   31  A    between atoms: _67  and  _68
REMARK   32  A    between atoms: _67  and  _70
REMARK   33  A    between atoms: _70  and  _71
REMARK   34  A    between atoms: _71  and  _72
REMARK   35  A    between atoms: _72  and  _73
REMARK   36  A    between atoms: _82  and  _84
REMARK   37  A    between atoms: _84  and  _85
REMARK   38  A    between atoms: _84  and  _87
REMARK   39  A    between atoms: _87  and  _88
REMARK   40  A    between atoms: _88  and  _89
REMARK   41  A    between atoms: _91  and  _93
REMARK   42  A    between atoms: _93  and  _94
REMARK   43  A    between atoms: _97  and  _99
REMARK   44  A    between atoms: _99  and  _100
REMARK   45  A    between atoms: _99  and  _102
REMARK   46  A    between atoms: _102  and  _103
REMARK   47  A    between atoms: _105  and  _107
REMARK   48  A    between atoms: _107  and  _108
REMARK   49  A    between atoms: _107  and  _110
REMARK   50  A    between atoms: _110  and  _111
REMARK   51  A    between atoms: _111  and  _112
REMARK   52  A    between atoms: _112  and  _113
REMARK   53  A    between atoms: _122  and  _124
REMARK   54  A    between atoms: _124  and  _125
REMARK   55  A    between atoms: _124  and  _127
REMARK   56  A    between atoms: _127  and  _128
REMARK   57  A    between atoms: _128  and  _129
REMARK   58  A    between atoms: _132  and  _134
REMARK   59  A    between atoms: _134  and  _135
REMARK   60  A    between atoms: _137  and  _139
REMARK   61  A    between atoms: _139  and  _140
REMARK   62  A    between atoms: _139  and  _142
REMARK   63  A    between atoms: _142  and  _143
REMARK   64  A    between atoms: _146  and  _148
REMARK   65  A    between atoms: _148  and  _149
REMARK   66  A    between atoms: _148  and  _151
REMARK   67  A    between atoms: _151  and  _152
REMARK   68  A    between atoms: _152  and  _153
REMARK   69  A    between atoms: _156  and  _158
REMARK   70  A    between atoms: _158  and  _159
REMARK   71  A    between atoms: _158  and  _161
REMARK   72  A    between atoms: _161  and  _162
REMARK   73  A    between atoms: _165  and  _167
REMARK   74  A    between atoms: _167  and  _168
REMARK   75  A    between atoms: _167  and  _170
REMARK   76  A    between atoms: _170  and  _171
REMARK   77  A    between atoms: _174  and  _176
REMARK   78  A    between atoms: _176  and  _177
REMARK   79  A    between atoms: _176  and  _179
REMARK   80  A    between atoms: _179  and  _180
REMARK   81  A    between atoms: _182  and  _184
REMARK   82  A    between atoms: _184  and  _185
REMARK   83  A    between atoms: _184  and  _187
REMARK   84  A    between atoms: _190  and  _192
REMARK   85  A    between atoms: _192  and  _193
REMARK   86  A    between atoms: _195  and  _197
REMARK   87  A    between atoms: _197  and  _198
REMARK   88  A    between atoms: _197  and  _200
REMARK   89  A    between atoms: _200  and  _201
REMARK   90  A    between atoms: _204  and  _206
REMARK   91  A    between atoms: _206  and  _207
REMARK   92  A    between atoms: _206  and  _209
REMARK   93  A    between atoms: _209  and  _210
REMARK   94  A    between atoms: _212  and  _214
REMARK   95  A    between atoms: _214  and  _215
REMARK   96  A    between atoms: _219  and  _220
REMARK   97  A    between atoms: _225  and  _227
REMARK   98  A    between atoms: _227  and  _228
REMARK   99  A    between atoms: _227  and  _230
REMARK  100  A    between atoms: _230  and  _231
REMARK  101  A    between atoms: _237  and  _239
REMARK  102  A    between atoms: _239  and  _240
REMARK  103  A    between atoms: _239  and  _242
REMARK  104  A    between atoms: _245  and  _247
REMARK  105  A    between atoms: _247  and  _248
REMARK  106  A    between atoms: _251  and  _253
REMARK  107  A    between atoms: _253  and  _254
REMARK  108  A    between atoms: _253  and  _256
REMARK  109  A    between atoms: _259  and  _261
REMARK  110  A    between atoms: _261  and  _262
REMARK  111  A    between atoms: _264  and  _266
REMARK  112  A    between atoms: _266  and  _267
REMARK  113  A    between atoms: _266  and  _269
REMARK  114  A    between atoms: _269  and  _270
REMARK  115  A    between atoms: _276  and  _278
REMARK  116  A    between atoms: _278  and  _279
REMARK  117  A    between atoms: _278  and  _281
REMARK  118  A    between atoms: _281  and  _282
REMARK  119  A    between atoms: _287  and  _289
REMARK  120  A    between atoms: _289  and  _290
REMARK  121  A    between atoms: _289  and  _292
REMARK  122  A    between atoms: _292  and  _293
REMARK  123  A    between atoms: _293  and  _294
REMARK  124  A    between atoms: _294  and  _295
REMARK  125  A    between atoms: _304  and  _306
REMARK  126  A    between atoms: _306  and  _307
REMARK  127  A    between atoms: _306  and  _309
REMARK  128  A    between atoms: _309  and  _310
REMARK  129  A    between atoms: _316  and  _318
REMARK  130  A    between atoms: _318  and  _319
REMARK  131  A    between atoms: _321  and  _323
REMARK  132  A    between atoms: _323  and  _324
REMARK  133  A    between atoms: _323  and  _326
REMARK  134  A    between atoms: _326  and  _327
REMARK  135  A    between atoms: _329  and  _331
REMARK  136  A    between atoms: _331  and  _332
REMARK  137  A    between atoms: _331  and  _334
REMARK  138  A    between atoms: _334  and  _335
REMARK  139  A    between atoms: _337  and  _339
REMARK  140  A    between atoms: _339  and  _340
REMARK  141  A    between atoms: _339  and  _342
REMARK  142  A    between atoms: _342  and  _343
REMARK  143  A    between atoms: _343  and  _344
REMARK  144  A    between atoms: _344  and  _345
REMARK  145  A    between atoms: _354  and  _356
REMARK  146  A    between atoms: _356  and  _357
REMARK  147  A    between atoms: _356  and  _359
REMARK  148  A    between atoms: _359  and  _360
REMARK  149  A    between atoms: _360  and  _361
REMARK  150  A    between atoms: _363  and  _365
REMARK  151  A    between atoms: _365  and  _366
REMARK  152  A    between atoms: _368  and  _370
REMARK  153  A    between atoms: _370  and  _371
REMARK  154  A    between atoms: _373  and  _375
REMARK  155  A    between atoms: _375  and  _376
REMARK  156  A    between atoms: _375  and  _378
REMARK  157  A    between atoms: _378  and  _379
REMARK  158  A    between atoms: _382  and  _384
REMARK  159  A    between atoms: _384  and  _385
REMARK  160  A    between atoms: _384  and  _387
REMARK  161  A    between atoms: _390  and  _392
REMARK  162  A    between atoms: _392  and  _393
REMARK  163  A    between atoms: _392  and  _395
REMARK  164  A    between atoms: _395  and  _396
REMARK  165  A    between atoms: _396  and  _397
REMARK  166  A    between atoms: _400  and  _402
REMARK  167  A    between atoms: _402  and  _403
REMARK  168  A    between atoms: _402  and  _405
REMARK  169  A    between atoms: _405  and  _406
REMARK  170  A    between atoms: _411  and  _413
REMARK  171  A    between atoms: _413  and  _414
REMARK  172  A    between atoms: _413  and  _416
REMARK  173  A    between atoms: _416  and  _417
REMARK  174  A    between atoms: _420  and  _422
REMARK  175  A    between atoms: _422  and  _423
REMARK  176  A    between atoms: _422  and  _425
REMARK  177  A    between atoms: _425  and  _426
REMARK  178  A    between atoms: _426  and  _427
REMARK  179  A    between atoms: _429  and  _431
REMARK  180  A    between atoms: _431  and  _432
REMARK  181  A    between atoms: _431  and  _434
REMARK  182  A    between atoms: _434  and  _435
REMARK  183  A    between atoms: _438  and  _440
REMARK  184  A    between atoms: _440  and  _441
REMARK  185  A    between atoms: _440  and  _443
REMARK  186  A    between atoms: _443  and  _444
REMARK  187  A    between atoms: _444  and  _445
REMARK  188  A    between atoms: _445  and  _446
REMARK  189  A    between atoms: _455  and  _457
REMARK  190  A    between atoms: _457  and  _458
REMARK  191  A    between atoms: _457  and  _460
REMARK  192  A    between atoms: _460  and  _461
REMARK  193  A    between atoms: _463  and  _465
REMARK  194  A    between atoms: _465  and  _466
REMARK  195  A    between atoms: _465  and  _468
REMARK  196  A    between atoms: _468  and  _469
REMARK  197  A    between atoms: _474  and  _476
REMARK  198  A    between atoms: _476  and  _477
REMARK  199  A    between atoms: _476  and  _479
REMARK  200  A    between atoms: _479  and  _480
REMARK  201  A    between atoms: _482  and  _484
REMARK  202  A    between atoms: _484  and  _485
REMARK  203  A    between atoms: _484  and  _487
REMARK  204  A    between atoms: _487  and  _488
REMARK  205  A    between atoms: _488  and  _489
REMARK  206  A    between atoms: _489  and  _490
REMARK  207  A    between atoms: _490  and  _491
REMARK  208  A    between atoms: _495  and  _497
REMARK  209  A    between atoms: _497  and  _498
REMARK  210  A    between atoms: _497  and  _500
REMARK  211  A    between atoms: _500  and  _501
REMARK  212  A    between atoms: _504  and  _506
REMARK  213  A    between atoms: _506  and  _507
REMARK  214  A    between atoms: _506  and  _509
REMARK  215  A    between atoms: _509  and  _510
REMARK  216  A    between atoms: _516  and  _518
REMARK  217  A    between atoms: _518  and  _519
REMARK  218  A    between atoms: _518  and  _521
REMARK  219  A    between atoms: _521  and  _522
REMARK  220  A    between atoms: _522  and  _523
REMARK  221  A    between atoms: _523  and  _524
REMARK                            x       y       z     vdW  Elec       q    Type
REMARK                         _______ _______ _______ _____ _____    ______ ____
ROOT
ATOM      1  CA  SER A   6      51.800  36.759  17.637  0.00  0.00    +0.178 C 
ENDROOT
BRANCH   1   2
ATOM      2  C   SER A   6      52.390  37.852  16.710  0.00  0.00    +0.243 C 
ATOM      3  O   SER A   6      53.028  38.784  17.198  0.00  0.00    -0.273 OA
ATOM      4  N   GLY A   7      52.167  37.731  15.394  0.00  0.00    -0.295 N 
ATOM      5  H   GLY A   7      51.678  36.884  15.040  0.00  0.00    +0.150 HD
BRANCH   4   6
ATOM      6  CA  GLY A   7      52.591  38.752  14.446  0.00  0.00    +0.176 C 
BRANCH   6   7
ATOM      7  C   GLY A   7      51.827  40.050  14.643  0.00  0.00    +0.243 C 
ATOM      8  N   ARG A   8      50.521  39.970  15.006  0.00  0.00    -0.297 N 
ATOM      9  H   ARG A   8      50.071  39.041  15.137  0.00  0.00    +0.150 HD
ATOM     10  O   GLY A   7      52.407  41.128  14.482  0.00  0.00    -0.273 OA
BRANCH   8  11
ATOM     11  CA  ARG A   8      49.748  41.198  15.213  0.00  0.00    +0.149 C 
BRANCH  11  12
ATOM     12  C   ARG A   8      50.203  41.876  16.504  0.00  0.00    +0.241 C 
ATOM     13  N   MET A   9      50.646  41.085  17.508  0.00  0.00    -0.298 N 
ATOM     14  H   MET A   9      50.564  40.053  17.413  0.00  0.00    +0.150 HD
ATOM     15  O   ARG A   8      50.186  43.104  16.573  0.00  0.00    -0.273 OA
BRANCH  13  16
ATOM     16  CA  MET A   9      51.239  41.645  18.728  0.00  0.00    +0.138 C 
BRANCH  16  17
ATOM     17  C   MET A   9      52.586  42.322  18.407  0.00  0.00    +0.227 C 
ATOM     18  O   MET A   9      52.886  43.391  18.946  0.00  0.00    -0.286 OA
ENDBRANCH  16  17
BRANCH  16  19
ATOM     19  CB  MET A   9      51.418  40.546  19.788  0.00  0.00    +0.039 C 
BRANCH  19  20
ATOM     20  CG  MET A   9      50.142  40.204  20.504  0.00  0.00    +0.060 C 
BRANCH  20  21
ATOM     21  SD  MET A   9      49.560  41.625  21.451  0.00  0.00    -0.139 S 
ATOM     22  CE  MET A   9      48.002  40.971  22.036  0.00  0.00    +0.069 C 
ENDBRANCH  20  21
ENDBRANCH  19  20
ENDBRANCH  16  19
ENDBRANCH  13  16
ENDBRANCH  11  12
BRANCH  11  23
ATOM     23  CB  ARG A   8      48.237  40.932  15.184  0.00  0.00    +0.033 C 
BRANCH  23  24
ATOM     24  CG  ARG A   8      47.792  40.364  13.848  0.00  0.00    +0.045 C 
BRANCH  24  25
ATOM     25  CD  ARG A   8      46.276  40.229  13.717  0.00  0.00    +0.174 C 
BRANCH  25  26
ATOM     26  NE  ARG A   8      45.989  39.402  12.544  0.00  0.00    -0.265 N 
ATOM     27  CZ  ARG A   8      45.825  38.083  12.555  0.00  0.00    +0.342 C 
ATOM     28  NH2 ARG A   8      45.723  37.427  13.706  0.00  0.00    -0.292 N 
ATOM     29 HH21 ARG A   8      45.771  37.946  14.606  0.00  0.00    +0.255 HD
ATOM     30 HH22 ARG A   8      45.595  36.395  13.707  0.00  0.00    +0.255 HD
ATOM     31  NH1 ARG A   8      45.702  37.414  11.413  0.00  0.00    -0.292 N 
ATOM     32 HH11 ARG A   8      45.574  36.382  11.426  0.00  0.00    +0.255 HD
ATOM     33 HH12 ARG A   8      45.734  37.923  10.506  0.00  0.00    +0.255 HD
ATOM     34  HE  ARG A   8      45.907  39.886  11.627  0.00  0.00    +0.259 HD
ENDBRANCH  25  26
ENDBRANCH  24  25
ENDBRANCH  23  24
ENDBRANCH  11  23
ENDBRANCH   8  11
ENDBRANCH   6   7
ENDBRANCH   4   6
ENDBRANCH   1   2
BRANCH   1  37
ATOM     35  C   THR A   5      49.468  37.330  17.229  0.00  0.00    +0.243 C 
ATOM     36  O   THR A   5      49.658  38.464  17.657  0.00  0.00    -0.273 OA
ATOM     37  N   SER A   6      50.445  36.394  17.197  0.00  0.00    -0.295 N 
ATOM     38  H   SER A   6      50.240  35.430  16.866  0.00  0.00    +0.150 HD
BRANCH  35  39
ATOM     39  CA  THR A   5      48.076  36.936  16.720  0.00  0.00    +0.176 C 
BRANCH  39  41
ATOM     40  C   GLY A   4      48.807  36.319  14.476  0.00  0.00    +0.243 C 
ATOM     41  N   THR A   5      48.166  35.976  15.618  0.00  0.00    -0.295 N 
ATOM     42  H   THR A   5      47.738  35.033  15.712  0.00  0.00    +0.150 HD
ATOM     43  O   GLY A   4      49.357  37.418  14.328  0.00  0.00    -0.273 OA
BRANCH  40  44
ATOM     44  CA  GLY A   4      48.858  35.290  13.363  0.00  0.00    +0.176 C 
BRANCH  44  47
ATOM     45  C   GLY A   3      51.246  34.867  13.511  0.00  0.00    +0.243 C 
ATOM     46  O   GLY A   3      51.197  34.854  14.751  0.00  0.00    -0.273 OA
ATOM     47  N   GLY A   4      50.178  35.108  12.759  0.00  0.00    -0.295 N 
ATOM     48  H   GLY A   4      50.282  35.168  11.726  0.00  0.00    +0.150 HD
BRANCH  45  49
ATOM     49  CA  GLY A   3      52.553  34.597  12.782  0.00  0.00    +0.176 C 
BRANCH  49  51
ATOM     50  C   GLY A   2      54.445  36.017  13.439  0.00  0.00    +0.243 C 
ATOM     51  N   GLY A   3      53.688  34.948  13.635  0.00  0.00    -0.295 N 
ATOM     52  H   GLY A   3      53.912  34.326  14.437  0.00  0.00    +0.150 HD
ATOM     53  O   GLY A   2      54.339  36.783  12.475  0.00  0.00    -0.273 OA
BRANCH  50  54
ATOM     54  CA  GLY A   2      55.450  36.289  14.528  0.00  0.00    +0.176 C 
BRANCH  54  57
ATOM     55  C   SER A   1      57.214  37.848  15.102  0.00  0.00    +0.241 C 
ATOM     56  O   SER A   1      57.338  37.383  16.232  0.00  0.00    -0.274 OA
ATOM     57  N   GLY A   2      56.321  37.405  14.223  0.00  0.00    -0.295 N 
ATOM     58  H   GLY A   2      56.246  37.870  13.296  0.00  0.00    +0.150 HD
BRANCH  55  59
ATOM     59  CA  SER A   1      58.146  38.960  14.629  0.00  0.00    +0.174 C 
BRANCH  59  60
ATOM     60  N   SER A   1      58.612  39.823  15.697  0.00  0.00    -0.236 NA
ATOM     61  H   SER A   1      58.846  39.409  16.622  0.00  0.00    +0.142 HD
ENDBRANCH  59  60
BRANCH  59  62
ATOM     62  CB  SER A   1      59.376  38.365  13.951  0.00  0.00    +0.163 C 
BRANCH  62  63
ATOM     63  OG  SER A   1      59.042  37.462  12.917  0.00  0.00    -0.380 OA
ATOM     64  H   SER A   1      59.872  37.106  12.511  0.00  0.00    +0.211 HD
ENDBRANCH  62  63
ENDBRANCH  59  62
ENDBRANCH  55  59
ENDBRANCH  54  57
ENDBRANCH  50  54
ENDBRANCH  49  51
ENDBRANCH  45  49
ENDBRANCH  44  47
ENDBRANCH  40  44
ENDBRANCH  39  41
BRANCH  39  65
ATOM     65  CB  THR A   5      47.173  36.445  17.862  0.00  0.00    +0.137 C 
ATOM     66  CG2 THR A   5      47.157  37.414  19.062  0.00  0.00    +0.034 C 
BRANCH  65  67
ATOM     67  OG1 THR A   5      45.840  36.338  17.376  0.00  0.00    -0.382 OA
ATOM     68  HG1 THR A   5      45.249  36.022  18.104  0.00  0.00    +0.210 HD
ENDBRANCH  65  67
ENDBRANCH  39  65
ENDBRANCH  35  39
ENDBRANCH   1  37
BRANCH   1  69
ATOM     69  CB  SER A   6      52.695  35.530  17.685  0.00  0.00    +0.166 C 
BRANCH  69  70
ATOM     70  OG  SER A   6      52.352  34.727  18.802  0.00  0.00    -0.380 OA
ATOM     71  H   SER A   6      52.471  35.251  19.633  0.00  0.00    +0.211 HD
ENDBRANCH  69  70
ENDBRANCH   1  69
TORSDOF 31
REMARK  Name = ../refined-set-2016/4bb9/4bb9_pocket.pdb
REMARK  221 active torsions:
REMARK  status: ('A' for Active; 'I' for Inactive)
REMARK    1  A    between atoms: _1  and  _3
REMARK    2  A    between atoms: _3  and  _4
REMARK    3  A    between atoms: _3  and  _6
REMARK    4  A    between atoms: _6  and  _7
REMARK    5  A    between atoms: _10  and  _12
REMARK    6  A    between atoms: _12  and  _13
REMARK    7  A    between atoms: _12  and  _15
REMARK    8  A    between atoms: _15  and  _16
REMARK    9  A    between atoms: _16  and  _17
REMARK   10  A    between atoms: _20  and  _22
REMARK   11  A    between atoms: _22  and  _23
REMARK   12  A    between atoms: _22  and  _25
REMARK   13  A    between atoms: _25  and  _26
REMARK   14  A    between atoms: _28  and  _30
REMARK   15  A    between atoms: _30  and  _31
REMARK   16  A    between atoms: _33  and  _35
REMARK   17  A    between atoms: _35  and  _36
REMARK   18  A    between atoms: _38  and  _40
REMARK   19  A    between atoms: _40  and  _41
REMARK   20  A    between atoms: _43  and  _45
REMARK   21  A    between atoms: _45  and  _46
REMARK   22  A    between atoms: _45  and  _48
REMARK   23  A    between atoms: _48  and  _49
REMARK   24  A    between atoms: _52  and  _54
REMARK   25  A    between atoms: _54  and  _55
REMARK   26  A    between atoms: _54  and  _57
REMARK   27  A    between atoms: _57  and  _58
REMARK   28  A    between atoms: _60  and  _62
REMARK   29  A    between atoms: _62  and  _63
REMARK   30  A    between atoms: _65  and  _67
REMARK   31  A    between atoms: _67  and  _68
REMARK   32  A    between atoms: _67  and  _70
REMARK   33  A    between atoms: _70  and  _71
REMARK   34  A    between atoms: _71  and  _72
REMARK   35  A    between atoms: _72  and  _73
REMARK   36  A    between atoms: _82  and  _84
REMARK   37  A    between atoms: _84  and  _85
REMARK   38  A    between atoms: _84  and  _87
REMARK   39  A    between atoms: _87  and  _88
REMARK   40  A    between atoms: _88  and  _89
REMARK   41  A    between atoms: _91  and  _93
REMARK   42  A    between atoms: _93  and  _94
REMARK   43  A    between atoms: _97  and  _99
REMARK   44  A    between atoms: _99  and  _100
REMARK   45  A    between atoms: _99  and  _102
REMARK   46  A    between atoms: _102  and  _103
REMARK   47  A    between atoms: _105  and  _107
REMARK   48  A    between atoms: _107  and  _108
REMARK   49  A    between atoms: _107  and  _110
REMARK   50  A    between atoms: _110  and  _111
REMARK   51  A    between atoms: _111  and  _112
REMARK   52  A    between atoms: _112  and  _113
REMARK   53  A    between atoms: _122  and  _124
REMARK   54  A    between atoms: _124  and  _125
REMARK   55  A    between atoms: _124  and  _127
REMARK   56  A    between atoms: _127  and  _128
REMARK   57  A    between atoms: _128  and  _129
REMARK   58  A    between atoms: _132  and  _134
REMARK   59  A    between atoms: _134  and  _135
REMARK   60  A    between atoms: _137  and  _139
REMARK   61  A    between atoms: _139  and  _140
REMARK   62  A    between atoms: _139  and  _142
REMARK   63  A    between atoms: _142  and  _143
REMARK   64  A    between atoms: _146  and  _148
REMARK   65  A    between atoms: _148  and  _149
REMARK   66  A    between atoms: _148  and  _151
REMARK   67  A    between atoms: _151  and  _152
REMARK   68  A    between atoms: _152  and  _153
REMARK   69  A    between atoms: _156  and  _158
REMARK   70  A    between atoms: _158  and  _159
REMARK   71  A    between atoms: _158  and  _161
REMARK   72  A    between atoms: _161  and  _162
REMARK   73  A    between atoms: _165  and  _167
REMARK   74  A    between atoms: _167  and  _168
REMARK   75  A    between atoms: _167  and  _170
REMARK   76  A    between atoms: _170  and  _171
REMARK   77  A    between atoms: _174  and  _176
REMARK   78  A    between atoms: _176  and  _177
REMARK   79  A    between atoms: _176  and  _179
REMARK   80  A    between atoms: _179  and  _180
REMARK   81  A    between atoms: _182  and  _184
REMARK   82  A    between atoms: _184  and  _185
REMARK   83  A    between atoms: _184  and  _187
REMARK   84  A    between atoms: _190  and  _192
REMARK   85  A    between atoms: _192  and  _193
REMARK   86  A    between atoms: _195  and  _197
REMARK   87  A    between atoms: _197  and  _198
REMARK   88  A    between atoms: _197  and  _200
REMARK   89  A    between atoms: _200  and  _201
REMARK   90  A    between atoms: _204  and  _206
REMARK   91  A    between atoms: _206  and  _207
REMARK   92  A    between atoms: _206  and  _209
REMARK   93  A    between atoms: _209  and  _210
REMARK   94  A    between atoms: _212  and  _214
REMARK   95  A    between atoms: _214  and  _215
REMARK   96  A    between atoms: _219  and  _220
REMARK   97  A    between atoms: _225  and  _227
REMARK   98  A    between atoms: _227  and  _228
REMARK   99  A    between atoms: _227  and  _230
REMARK  100  A    between atoms: _230  and  _231
REMARK  101  A    between atoms: _237  and  _239
REMARK  102  A    between atoms: _239  and  _240
REMARK  103  A    between atoms: _239  and  _242
REMARK  104  A    between atoms: _245  and  _247
REMARK  105  A    between atoms: _247  and  _248
REMARK  106  A    between atoms: _251  and  _253
REMARK  107  A    between atoms: _253  and  _254
REMARK  108  A    between atoms: _253  and  _256
REMARK  109  A    between atoms: _259  and  _261
REMARK  110  A    between atoms: _261  and  _262
REMARK  111  A    between atoms: _264  and  _266
REMARK  112  A    between atoms: _266  and  _267
REMARK  113  A    between atoms: _266  and  _269
REMARK  114  A    between atoms: _269  and  _270
REMARK  115  A    between atoms: _276  and  _278
REMARK  116  A    between atoms: _278  and  _279
REMARK  117  A    between atoms: _278  and  _281
REMARK  118  A    between atoms: _281  and  _282
REMARK  119  A    between atoms: _287  and  _289
REMARK  120  A    between atoms: _289  and  _290
REMARK  121  A    between atoms: _289  and  _292
REMARK  122  A    between atoms: _292  and  _293
REMARK  123  A    between atoms: _293  and  _294
REMARK  124  A    between atoms: _294  and  _295
REMARK  125  A    between atoms: _304  and  _306
REMARK  126  A    between atoms: _306  and  _307
REMARK  127  A    between atoms: _306  and  _309
REMARK  128  A    between atoms: _309  and  _310
REMARK  129  A    between atoms: _316  and  _318
REMARK  130  A    between atoms: _318  and  _319
REMARK  131  A    between atoms: _321  and  _323
REMARK  132  A    between atoms: _323  and  _324
REMARK  133  A    between atoms: _323  and  _326
REMARK  134  A    between atoms: _326  and  _327
REMARK  135  A    between atoms: _329  and  _331
REMARK  136  A    between atoms: _331  and  _332
REMARK  137  A    between atoms: _331  and  _334
REMARK  138  A    between atoms: _334  and  _335
REMARK  139  A    between atoms: _337  and  _339
REMARK  140  A    between atoms: _339  and  _340
REMARK  141  A    between atoms: _339  and  _342
REMARK  142  A    between atoms: _342  and  _343
REMARK  143  A    between atoms: _343  and  _344
REMARK  144  A    between atoms: _344  and  _345
REMARK  145  A    between atoms: _354  and  _356
REMARK  146  A    between atoms: _356  and  _357
REMARK  147  A    between atoms: _356  and  _359
REMARK  148  A    between atoms: _359  and  _360
REMARK  149  A    between atoms: _360  and  _361
REMARK  150  A    between atoms: _363  and  _365
REMARK  151  A    between atoms: _365  and  _366
REMARK  152  A    between atoms: _368  and  _370
REMARK  153  A    between atoms: _370  and  _371
REMARK  154  A    between atoms: _373  and  _375
REMARK  155  A    between atoms: _375  and  _376
REMARK  156  A    between atoms: _375  and  _378
REMARK  157  A    between atoms: _378  and  _379
REMARK  158  A    between atoms: _382  and  _384
REMARK  159  A    between atoms: _384  and  _385
REMARK  160  A    between atoms: _384  and  _387
REMARK  161  A    between atoms: _390  and  _392
REMARK  162  A    between atoms: _392  and  _393
REMARK  163  A    between atoms: _392  and  _395
REMARK  164  A    between atoms: _395  and  _396
REMARK  165  A    between atoms: _396  and  _397
REMARK  166  A    between atoms: _400  and  _402
REMARK  167  A    between atoms: _402  and  _403
REMARK  168  A    between atoms: _402  and  _405
REMARK  169  A    between atoms: _405  and  _406
REMARK  170  A    between atoms: _411  and  _413
REMARK  171  A    between atoms: _413  and  _414
REMARK  172  A    between atoms: _413  and  _416
REMARK  173  A    between atoms: _416  and  _417
REMARK  174  A    between atoms: _420  and  _422
REMARK  175  A    between atoms: _422  and  _423
REMARK  176  A    between atoms: _422  and  _425
REMARK  177  A    between atoms: _425  and  _426
REMARK  178  A    between atoms: _426  and  _427
REMARK  179  A    between atoms: _429  and  _431
REMARK  180  A    between atoms: _431  and  _432
REMARK  181  A    between atoms: _431  and  _434
REMARK  182  A    between atoms: _434  and  _435
REMARK  183  A    between atoms: _438  and  _440
REMARK  184  A    between atoms: _440  and  _441
REMARK  185  A    between atoms: _440  and  _443
REMARK  186  A    between atoms: _443  and  _444
REMARK  187  A    between atoms: _444  and  _445
REMARK  188  A    between atoms: _445  and  _446
REMARK  189  A    between atoms: _455  and  _457
REMARK  190  A    between atoms: _457  and  _458
REMARK  191  A    between atoms: _457  and  _460
REMARK  192  A    between atoms: _460  and  _461
REMARK  193  A    between atoms: _463  and  _465
REMARK  194  A    between atoms: _465  and  _466
REMARK  195  A    between atoms: _465  and  _468
REMARK  196  A    between atoms: _468  and  _469
REMARK  197  A    between atoms: _474  and  _476
REMARK  198  A    between atoms: _476  and  _477
REMARK  199  A    between atoms: _476  and  _479
REMARK  200  A    between atoms: _479  and  _480
REMARK  201  A    between atoms: _482  and  _484
REMARK  202  A    between atoms: _484  and  _485
REMARK  203  A    between atoms: _484  and  _487
REMARK  204  A    between atoms: _487  and  _488
REMARK  205  A    between atoms: _488  and  _489
REMARK  206  A    between atoms: _489  and  _490
REMARK  207  A    between atoms: _490  and  _491
REMARK  208  A    between atoms: _495  and  _497
REMARK  209  A    between atoms: _497  and  _498
REMARK  210  A    between atoms: _497  and  _500
REMARK  211  A    between atoms: _500  and  _501
REMARK  212  A    between atoms: _504  and  _506
REMARK  213  A    between atoms: _506  and  _507
REMARK  214  A    between atoms: _506  and  _509
REMARK  215  A    between atoms: _509  and  _510
REMARK  216  A    between atoms: _516  and  _518
REMARK  217  A    between atoms: _518  and  _519
REMARK  218  A    between atoms: _518  and  _521
REMARK  219  A    between atoms: _521  and  _522
REMARK  220  A    between atoms: _522  and  _523
REMARK  221  A    between atoms: _523  and  _524
REMARK                            x       y       z     vdW  Elec       q    Type
REMARK                         _______ _______ _______ _____ _____    ______ ____
ROOT
ATOM      1  CA  ALA A   1      54.163  36.134   8.366  0.00  0.00    +0.133 C 
ATOM      2  CB  ALA A   1      53.940  34.744   8.925  0.00  0.00    +0.027 C 
ENDROOT
BRANCH   1   3
ATOM      3  N   ALA A   1      54.197  37.103   9.461  0.00  0.00    -0.239 NA
ATOM      4  H   ALA A   1      54.114  36.780  10.446  0.00  0.00    +0.142 HD
ENDBRANCH   1   3
BRANCH   1   5
ATOM      5  C   ALA A   1      53.028  36.510   7.389  0.00  0.00    +0.224 C 
ATOM      6  O   ALA A   1      51.905  36.765   7.817  0.00  0.00    -0.287 OA
ENDBRANCH   1   5
TORSDOF 2
REMARK  Name = ../refined-set-2016/4bb9/4bb9_pocket.pdb
REMARK  221 active torsions:
REMARK  status: ('A' for Active; 'I' for Inactive)
REMARK    1  A    between atoms: _1  and  _3
REMARK    2  A    between atoms: _3  and  _4
REMARK    3  A    between atoms: _3  and  _6
REMARK    4  A    between atoms: _6  and  _7
REMARK    5  A    between atoms: _10  and  _12
REMARK    6  A    between atoms: _12  and  _13
REMARK    7  A    between atoms: _12  and  _15
REMARK    8  A    between atoms: _15  and  _16
REMARK    9  A    between atoms: _16  and  _17
REMARK   10  A    between atoms: _20  and  _22
REMARK   11  A    between atoms: _22  and  _23
REMARK   12  A    between atoms: _22  and  _25
REMARK   13  A    between atoms: _25  and  _26
REMARK   14  A    between atoms: _28  and  _30
REMARK   15  A    between atoms: _30  and  _31
REMARK   16  A    between atoms: _33  and  _35
REMARK   17  A    between atoms: _35  and  _36
REMARK   18  A    between atoms: _38  and  _40
REMARK   19  A    between atoms: _40  and  _41
REMARK   20  A    between atoms: _43  and  _45
REMARK   21  A    between atoms: _45  and  _46
REMARK   22  A    between atoms: _45  and  _48
REMARK   23  A    between atoms: _48  and  _49
REMARK   24  A    between atoms: _52  and  _54
REMARK   25  A    between atoms: _54  and  _55
REMARK   26  A    between atoms: _54  and  _57
REMARK   27  A    between atoms: _57  and  _58
REMARK   28  A    between atoms: _60  and  _62
REMARK   29  A    between atoms: _62  and  _63
REMARK   30  A    between atoms: _65  and  _67
REMARK   31  A    between atoms: _67  and  _68
REMARK   32  A    between atoms: _67  and  _70
REMARK   33  A    between atoms: _70  and  _71
REMARK   34  A    between atoms: _71  and  _72
REMARK   35  A    between atoms: _72  and  _73
REMARK   36  A    between atoms: _82  and  _84
REMARK   37  A    between atoms: _84  and  _85
REMARK   38  A    between atoms: _84  and  _87
REMARK   39  A    between atoms: _87  and  _88
REMARK   40  A    between atoms: _88  and  _89
REMARK   41  A    between atoms: _91  and  _93
REMARK   42  A    between atoms: _93  and  _94
REMARK   43  A    between atoms: _97  and  _99
REMARK   44  A    between atoms: _99  and  _100
REMARK   45  A    between atoms: _99  and  _102
REMARK   46  A    between atoms: _102  and  _103
REMARK   47  A    between atoms: _105  and  _107
REMARK   48  A    between atoms: _107  and  _108
REMARK   49  A    between atoms: _107  and  _110
REMARK   50  A    between atoms: _110  and  _111
REMARK   51  A    between atoms: _111  and  _112
REMARK   52  A    between atoms: _112  and  _113
REMARK   53  A    between atoms: _122  and  _124
REMARK   54  A    between atoms: _124  and  _125
REMARK   55  A    between atoms: _124  and  _127
REMARK   56  A    between atoms: _127  and  _128
REMARK   57  A    between atoms: _128  and  _129
REMARK   58  A    between atoms: _132  and  _134
REMARK   59  A    between atoms: _134  and  _135
REMARK   60  A    between atoms: _137  and  _139
REMARK   61  A    between atoms: _139  and  _140
REMARK   62  A    between atoms: _139  and  _142
REMARK   63  A    between atoms: _142  and  _143
REMARK   64  A    between atoms: _146  and  _148
REMARK   65  A    between atoms: _148  and  _149
REMARK   66  A    between atoms: _148  and  _151
REMARK   67  A    between atoms: _151  and  _152
REMARK   68  A    between atoms: _152  and  _153
REMARK   69  A    between atoms: _156  and  _158
REMARK   70  A    between atoms: _158  and  _159
REMARK   71  A    between atoms: _158  and  _161
REMARK   72  A    between atoms: _161  and  _162
REMARK   73  A    between atoms: _165  and  _167
REMARK   74  A    between atoms: _167  and  _168
REMARK   75  A    between atoms: _167  and  _170
REMARK   76  A    between atoms: _170  and  _171
REMARK   77  A    between atoms: _174  and  _176
REMARK   78  A    between atoms: _176  and  _177
REMARK   79  A    between atoms: _176  and  _179
REMARK   80  A    between atoms: _179  and  _180
REMARK   81  A    between atoms: _182  and  _184
REMARK   82  A    between atoms: _184  and  _185
REMARK   83  A    between atoms: _184  and  _187
REMARK   84  A    between atoms: _190  and  _192
REMARK   85  A    between atoms: _192  and  _193
REMARK   86  A    between atoms: _195  and  _197
REMARK   87  A    between atoms: _197  and  _198
REMARK   88  A    between atoms: _197  and  _200
REMARK   89  A    between atoms: _200  and  _201
REMARK   90  A    between atoms: _204  and  _206
REMARK   91  A    between atoms: _206  and  _207
REMARK   92  A    between atoms: _206  and  _209
REMARK   93  A    between atoms: _209  and  _210
REMARK   94  A    between atoms: _212  and  _214
REMARK   95  A    between atoms: _214  and  _215
REMARK   96  A    between atoms: _219  and  _220
REMARK   97  A    between atoms: _225  and  _227
REMARK   98  A    between atoms: _227  and  _228
REMARK   99  A    between atoms: _227  and  _230
REMARK  100  A    between atoms: _230  and  _231
REMARK  101  A    between atoms: _237  and  _239
REMARK  102  A    between atoms: _239  and  _240
REMARK  103  A    between atoms: _239  and  _242
REMARK  104  A    between atoms: _245  and  _247
REMARK  105  A    between atoms: _247  and  _248
REMARK  106  A    between atoms: _251  and  _253
REMARK  107  A    between atoms: _253  and  _254
REMARK  108  A    between atoms: _253  and  _256
REMARK  109  A    between atoms: _259  and  _261
REMARK  110  A    between atoms: _261  and  _262
REMARK  111  A    between atoms: _264  and  _266
REMARK  112  A    between atoms: _266  and  _267
REMARK  113  A    between atoms: _266  and  _269
REMARK  114  A    between atoms: _269  and  _270
REMARK  115  A    between atoms: _276  and  _278
REMARK  116  A    between atoms: _278  and  _279
REMARK  117  A    between atoms: _278  and  _281
REMARK  118  A    between atoms: _281  and  _282
REMARK  119  A    between atoms: _287  and  _289
REMARK  120  A    between atoms: _289  and  _290
REMARK  121  A    between atoms: _289  and  _292
REMARK  122  A    between atoms: _292  and  _293
REMARK  123  A    between atoms: _293  and  _294
REMARK  124  A    between atoms: _294  and  _295
REMARK  125  A    between atoms: _304  and  _306
REMARK  126  A    between atoms: _306  and  _307
REMARK  127  A    between atoms: _306  and  _309
REMARK  128  A    between atoms: _309  and  _310
REMARK  129  A    between atoms: _316  and  _318
REMARK  130  A    between atoms: _318  and  _319
REMARK  131  A    between atoms: _321  and  _323
REMARK  132  A    between atoms: _323  and  _324
REMARK  133  A    between atoms: _323  and  _326
REMARK  134  A    between atoms: _326  and  _327
REMARK  135  A    between atoms: _329  and  _331
REMARK  136  A    between atoms: _331  and  _332
REMARK  137  A    between atoms: _331  and  _334
REMARK  138  A    between atoms: _334  and  _335
REMARK  139  A    between atoms: _337  and  _339
REMARK  140  A    between atoms: _339  and  _340
REMARK  141  A    between atoms: _339  and  _342
REMARK  142  A    between atoms: _342  and  _343
REMARK  143  A    between atoms: _343  and  _344
REMARK  144  A    between atoms: _344  and  _345
REMARK  145  A    between atoms: _354  and  _356
REMARK  146  A    between atoms: _356  and  _357
REMARK  147  A    between atoms: _356  and  _359
REMARK  148  A    between atoms: _359  and  _360
REMARK  149  A    between atoms: _360  and  _361
REMARK  150  A    between atoms: _363  and  _365
REMARK  151  A    between atoms: _365  and  _366
REMARK  152  A    between atoms: _368  and  _370
REMARK  153  A    between atoms: _370  and  _371
REMARK  154  A    between atoms: _373  and  _375
REMARK  155  A    between atoms: _375  and  _376
REMARK  156  A    between atoms: _375  and  _378
REMARK  157  A    between atoms: _378  and  _379
REMARK  158  A    between atoms: _382  and  _384
REMARK  159  A    between atoms: _384  and  _385
REMARK  160  A    between atoms: _384  and  _387
REMARK  161  A    between atoms: _390  and  _392
REMARK  162  A    between atoms: _392  and  _393
REMARK  163  A    between atoms: _392  and  _395
REMARK  164  A    between atoms: _395  and  _396
REMARK  165  A    between atoms: _396  and  _397
REMARK  166  A    between atoms: _400  and  _402
REMARK  167  A    between atoms: _402  and  _403
REMARK  168  A    between atoms: _402  and  _405
REMARK  169  A    between atoms: _405  and  _406
REMARK  170  A    between atoms: _411  and  _413
REMARK  171  A    between atoms: _413  and  _414
REMARK  172  A    between atoms: _413  and  _416
REMARK  173  A    between atoms: _416  and  _417
REMARK  174  A    between atoms: _420  and  _422
REMARK  175  A    between atoms: _422  and  _423
REMARK  176  A    between atoms: _422  and  _425
REMARK  177  A    between atoms: _425  and  _426
REMARK  178  A    between atoms: _426  and  _427
REMARK  179  A    between atoms: _429  and  _431
REMARK  180  A    between atoms: _431  and  _432
REMARK  181  A    between atoms: _431  and  _434
REMARK  182  A    between atoms: _434  and  _435
REMARK  183  A    between atoms: _438  and  _440
REMARK  184  A    between atoms: _440  and  _441
REMARK  185  A    between atoms: _440  and  _443
REMARK  186  A    between atoms: _443  and  _444
REMARK  187  A    between atoms: _444  and  _445
REMARK  188  A    between atoms: _445  and  _446
REMARK  189  A    between atoms: _455  and  _457
REMARK  190  A    between atoms: _457  and  _458
REMARK  191  A    between atoms: _457  and  _460
REMARK  192  A    between atoms: _460  and  _461
REMARK  193  A    between atoms: _463  and  _465
REMARK  194  A    between atoms: _465  and  _466
REMARK  195  A    between atoms: _465  and  _468
REMARK  196  A    between atoms: _468  and  _469
REMARK  197  A    between atoms: _474  and  _476
REMARK  198  A    between atoms: _476  and  _477
REMARK  199  A    between atoms: _476  and  _479
REMARK  200  A    between atoms: _479  and  _480
REMARK  201  A    between atoms: _482  and  _484
REMARK  202  A    between atoms: _484  and  _485
REMARK  203  A    between atoms: _484  and  _487
REMARK  204  A    between atoms: _487  and  _488
REMARK  205  A    between atoms: _488  and  _489
REMARK  206  A    between atoms: _489  and  _490
REMARK  207  A    between atoms: _490  and  _491
REMARK  208  A    between atoms: _495  and  _497
REMARK  209  A    between atoms: _497  and  _498
REMARK  210  A    between atoms: _497  and  _500
REMARK  211  A    between atoms: _500  and  _501
REMARK  212  A    between atoms: _504  and  _506
REMARK  213  A    between atoms: _506  and  _507
REMARK  214  A    between atoms: _506  and  _509
REMARK  215  A    between atoms: _509  and  _510
REMARK  216  A    between atoms: _516  and  _518
REMARK  217  A    between atoms: _518  and  _519
REMARK  218  A    between atoms: _518  and  _521
REMARK  219  A    between atoms: _521  and  _522
REMARK  220  A    between atoms: _522  and  _523
REMARK  221  A    between atoms: _523  and  _524
REMARK                            x       y       z     vdW  Elec       q    Type
REMARK                         _______ _______ _______ _____ _____    ______ ____
ROOT
ATOM      1  C   GLU A   3      49.006  30.696   8.297  0.00  0.00    +0.241 C 
ATOM      2  O   GLU A   3      50.037  30.449   8.931  0.00  0.00    -0.273 OA
ATOM      3  N   GLY A   4      48.748  30.208   7.085  0.00  0.00    -0.295 N 
ATOM      4  H   GLY A   4      47.874  30.497   6.602  0.00  0.00    +0.150 HD
ENDROOT
BRANCH   3   5
ATOM      5  CA  GLY A   4      49.652  29.282   6.414  0.00  0.00    +0.176 C 
BRANCH   5   6
ATOM      6  C   GLY A   4      50.994  29.877   6.048  0.00  0.00    +0.243 C 
ATOM      7  N   THR A   5      51.062  31.220   5.973  0.00  0.00    -0.295 N 
ATOM      8  H   THR A   5      50.214  31.780   6.195  0.00  0.00    +0.150 HD
ATOM      9  O   GLY A   4      51.978  29.141   5.881  0.00  0.00    -0.273 OA
BRANCH   7  10
ATOM     10  CA  THR A   5      52.292  31.918   5.588  0.00  0.00    +0.176 C 
BRANCH  10  11
ATOM     11  C   THR A   5      53.428  31.749   6.613  0.00  0.00    +0.243 C 
ATOM     12  N   GLU A   6      53.105  31.384   7.867  0.00  0.00    -0.297 N 
ATOM     13  H   GLU A   6      52.108  31.250   8.133  0.00  0.00    +0.150 HD
ATOM     14  O   THR A   5      54.595  31.927   6.262  0.00  0.00    -0.273 OA
BRANCH  12  15
ATOM     15  CA  GLU A   6      54.164  31.176   8.855  0.00  0.00    +0.149 C 
BRANCH  15  16
ATOM     16  C   GLU A   6      54.898  29.849   8.705  0.00  0.00    +0.241 C 
ATOM     17  O   GLU A   6      55.854  29.603   9.449  0.00  0.00    -0.273 OA
ATOM     18  N   ASP A   7      54.421  28.962   7.815  0.00  0.00    -0.298 N 
ATOM     19  H   ASP A   7      53.618  29.221   7.208  0.00  0.00    +0.150 HD
BRANCH  18  20
ATOM     20  CA  ASP A   7      55.024  27.633   7.694  0.00  0.00    +0.148 C 
BRANCH  20  21
ATOM     21  C   ASP A   7      56.340  27.580   6.912  0.00  0.00    +0.227 C 
ATOM     22  O   ASP A   7      56.905  26.502   6.749  0.00  0.00    -0.286 OA
ENDBRANCH  20  21
BRANCH  20  23
ATOM     23  CB  ASP A   7      53.990  26.607   7.224  0.00  0.00    +0.142 C 
BRANCH  23  24
ATOM     24  CG  ASP A   7      52.991  26.228   8.295  0.00  0.00    +0.367 C 
ATOM     25  OD2 ASP A   7      53.366  26.241   9.492  0.00  0.00    -0.246 OA
ATOM     26  OD1 ASP A   7      51.857  25.841   7.937  0.00  0.00    -0.246 OA
ENDBRANCH  23  24
ENDBRANCH  20  23
ENDBRANCH  18  20
ENDBRANCH  15  16
BRANCH  15  27
ATOM     27  CB  GLU A   6      53.611  31.265  10.272  0.00  0.00    +0.041 C 
BRANCH  27  28
ATOM     28  CG  GLU A   6      52.792  30.056  10.690  0.00  0.00    +0.116 C 
BRANCH  28  29
ATOM     29  CD  GLU A   6      52.136  30.195  12.045  0.00  0.00    +0.365 C 
ATOM     30  OE2 GLU A   6      52.175  29.207  12.811  0.00  0.00    -0.246 OA
ATOM     31  OE1 GLU A   6      51.485  31.239  12.288  0.00  0.00    -0.246 OA
ENDBRANCH  28  29
ENDBRANCH  27  28
ENDBRANCH  15  27
ENDBRANCH  12  15
ENDBRANCH  10  11
BRANCH  10  32
ATOM     32  CB  THR A   5      52.007  33.378   5.284  0.00  0.00    +0.137 C 
ATOM     33  CG2 THR A   5      51.020  33.567   4.119  0.00  0.00    +0.034 C 
BRANCH  32  34
ATOM     34  OG1 THR A   5      51.533  34.006   6.471  0.00  0.00    -0.382 OA
ATOM     35  HG1 THR A   5      50.704  33.556   6.773  0.00  0.00    +0.210 HD
ENDBRANCH  32  34
ENDBRANCH  10  32
ENDBRANCH   7  10
ENDBRANCH   5   6
ENDBRANCH   3   5
BRANCH   1  36
ATOM     36  CA  GLU A   3      47.983  31.633   8.906  0.00  0.00    +0.149 C 
BRANCH  36  38
ATOM     37  C   ARG A   2      47.704  33.259   7.084  0.00  0.00    +0.241 C 
ATOM     38  N   GLU A   3      47.182  32.411   7.965  0.00  0.00    -0.297 N 
ATOM     39  H   GLU A   3      46.149  32.296   7.985  0.00  0.00    +0.150 HD
ATOM     40  O   ARG A   2      48.920  33.352   6.882  0.00  0.00    -0.273 OA
BRANCH  37  41
ATOM     41  CA  ARG A   2      46.700  34.086   6.281  0.00  0.00    +0.149 C 
BRANCH  41  43
ATOM     42  C   SER A   1      44.345  34.513   6.938  0.00  0.00    +0.241 C 
ATOM     43  N   ARG A   2      45.665  34.597   7.192  0.00  0.00    -0.297 N 
ATOM     44  H   ARG A   2      45.968  35.047   8.079  0.00  0.00    +0.150 HD
ATOM     45  O   SER A   1      43.889  34.003   5.910  0.00  0.00    -0.274 OA
BRANCH  42  46
ATOM     46  CA  SER A   1      43.404  35.124   7.985  0.00  0.00    +0.174 C 
BRANCH  46  47
ATOM     47  N   SER A   1      43.008  36.452   7.560  0.00  0.00    -0.236 NA
ATOM     48  H   SER A   1      42.084  36.552   7.093  0.00  0.00    +0.142 HD
ENDBRANCH  46  47
BRANCH  46  49
ATOM     49  CB  SER A   1      42.158  34.268   8.166  0.00  0.00    +0.163 C 
BRANCH  49  50
ATOM     50  OG  SER A   1      42.466  32.900   8.375  0.00  0.00    -0.380 OA
ATOM     51  H   SER A   1      43.021  32.809   9.190  0.00  0.00    +0.211 HD
ENDBRANCH  49  50
ENDBRANCH  46  49
ENDBRANCH  42  46
ENDBRANCH  41  43
BRANCH  41  52
ATOM     52  CB  ARG A   2      47.391  35.259   5.570  0.00  0.00    +0.033 C 
BRANCH  52  53
ATOM     53  CG  ARG A   2      46.471  36.068   4.676  0.00  0.00    +0.045 C 
BRANCH  53  54
ATOM     54  CD  ARG A   2      47.026  37.452   4.371  0.00  0.00    +0.174 C 
BRANCH  54  55
ATOM     55  NE  ARG A   2      48.391  37.467   3.817  0.00  0.00    -0.265 N 
ATOM     56  HE  ARG A   2      49.176  37.688   4.462  0.00  0.00    +0.259 HD
ATOM     57  CZ  ARG A   2      48.683  37.216   2.545  0.00  0.00    +0.342 C 
ATOM     58  NH2 ARG A   2      49.940  37.264   2.125  0.00  0.00    -0.292 N 
ATOM     59 HH21 ARG A   2      50.703  37.499   2.792  0.00  0.00    +0.255 HD
ATOM     60 HH22 ARG A   2      50.163  37.067   1.129  0.00  0.00    +0.255 HD
ATOM     61  NH1 ARG A   2      47.724  36.883   1.689  0.00  0.00    -0.292 N 
ATOM     62 HH11 ARG A   2      46.738  36.817   2.013  0.00  0.00    +0.255 HD
ATOM     63 HH12 ARG A   2      47.959  36.688   0.695  0.00  0.00    +0.255 HD
ENDBRANCH  54  55
ENDBRANCH  53  54
ENDBRANCH  52  53
ENDBRANCH  41  52
ENDBRANCH  37  41
ENDBRANCH  36  38
BRANCH  36  64
ATOM     64  CB  GLU A   3      47.115  30.882   9.923  0.00  0.00    +0.041 C 
BRANCH  64  65
ATOM     65  CG  GLU A   3      46.318  31.789  10.857  0.00  0.00    +0.116 C 
BRANCH  65  66
ATOM     66  CD  GLU A   3      45.012  32.291  10.269  0.00  0.00    +0.365 C 
ATOM     67  OE2 GLU A   3      44.351  33.128  10.924  0.00  0.00    -0.246 OA
ATOM     68  OE1 GLU A   3      44.649  31.850   9.154  0.00  0.00    -0.246 OA
ENDBRANCH  65  66
ENDBRANCH  64  65
ENDBRANCH  36  64
ENDBRANCH   1  36
TORSDOF 30
REMARK  Name = ../refined-set-2016/4bb9/4bb9_pocket.pdb
REMARK  221 active torsions:
REMARK  status: ('A' for Active; 'I' for Inactive)
REMARK    1  A    between atoms: _1  and  _3
REMARK    2  A    between atoms: _3  and  _4
REMARK    3  A    between atoms: _3  and  _6
REMARK    4  A    between atoms: _6  and  _7
REMARK    5  A    between atoms: _10  and  _12
REMARK    6  A    between atoms: _12  and  _13
REMARK    7  A    between atoms: _12  and  _15
REMARK    8  A    between atoms: _15  and  _16
REMARK    9  A    between atoms: _16  and  _17
REMARK   10  A    between atoms: _20  and  _22
REMARK   11  A    between atoms: _22  and  _23
REMARK   12  A    between atoms: _22  and  _25
REMARK   13  A    between atoms: _25  and  _26
REMARK   14  A    between atoms: _28  and  _30
REMARK   15  A    between atoms: _30  and  _31
REMARK   16  A    between atoms: _33  and  _35
REMARK   17  A    between atoms: _35  and  _36
REMARK   18  A    between atoms: _38  and  _40
REMARK   19  A    between atoms: _40  and  _41
REMARK   20  A    between atoms: _43  and  _45
REMARK   21  A    between atoms: _45  and  _46
REMARK   22  A    between atoms: _45  and  _48
REMARK   23  A    between atoms: _48  and  _49
REMARK   24  A    between atoms: _52  and  _54
REMARK   25  A    between atoms: _54  and  _55
REMARK   26  A    between atoms: _54  and  _57
REMARK   27  A    between atoms: _57  and  _58
REMARK   28  A    between atoms: _60  and  _62
REMARK   29  A    between atoms: _62  and  _63
REMARK   30  A    between atoms: _65  and  _67
REMARK   31  A    between atoms: _67  and  _68
REMARK   32  A    between atoms: _67  and  _70
REMARK   33  A    between atoms: _70  and  _71
REMARK   34  A    between atoms: _71  and  _72
REMARK   35  A    between atoms: _72  and  _73
REMARK   36  A    between atoms: _82  and  _84
REMARK   37  A    between atoms: _84  and  _85
REMARK   38  A    between atoms: _84  and  _87
REMARK   39  A    between atoms: _87  and  _88
REMARK   40  A    between atoms: _88  and  _89
REMARK   41  A    between atoms: _91  and  _93
REMARK   42  A    between atoms: _93  and  _94
REMARK   43  A    between atoms: _97  and  _99
REMARK   44  A    between atoms: _99  and  _100
REMARK   45  A    between atoms: _99  and  _102
REMARK   46  A    between atoms: _102  and  _103
REMARK   47  A    between atoms: _105  and  _107
REMARK   48  A    between atoms: _107  and  _108
REMARK   49  A    between atoms: _107  and  _110
REMARK   50  A    between atoms: _110  and  _111
REMARK   51  A    between atoms: _111  and  _112
REMARK   52  A    between atoms: _112  and  _113
REMARK   53  A    between atoms: _122  and  _124
REMARK   54  A    between atoms: _124  and  _125
REMARK   55  A    between atoms: _124  and  _127
REMARK   56  A    between atoms: _127  and  _128
REMARK   57  A    between atoms: _128  and  _129
REMARK   58  A    between atoms: _132  and  _134
REMARK   59  A    between atoms: _134  and  _135
REMARK   60  A    between atoms: _137  and  _139
REMARK   61  A    between atoms: _139  and  _140
REMARK   62  A    between atoms: _139  and  _142
REMARK   63  A    between atoms: _142  and  _143
REMARK   64  A    between atoms: _146  and  _148
REMARK   65  A    between atoms: _148  and  _149
REMARK   66  A    between atoms: _148  and  _151
REMARK   67  A    between atoms: _151  and  _152
REMARK   68  A    between atoms: _152  and  _153
REMARK   69  A    between atoms: _156  and  _158
REMARK   70  A    between atoms: _158  and  _159
REMARK   71  A    between atoms: _158  and  _161
REMARK   72  A    between atoms: _161  and  _162
REMARK   73  A    between atoms: _165  and  _167
REMARK   74  A    between atoms: _167  and  _168
REMARK   75  A    between atoms: _167  and  _170
REMARK   76  A    between atoms: _170  and  _171
REMARK   77  A    between atoms: _174  and  _176
REMARK   78  A    between atoms: _176  and  _177
REMARK   79  A    between atoms: _176  and  _179
REMARK   80  A    between atoms: _179  and  _180
REMARK   81  A    between atoms: _182  and  _184
REMARK   82  A    between atoms: _184  and  _185
REMARK   83  A    between atoms: _184  and  _187
REMARK   84  A    between atoms: _190  and  _192
REMARK   85  A    between atoms: _192  and  _193
REMARK   86  A    between atoms: _195  and  _197
REMARK   87  A    between atoms: _197  and  _198
REMARK   88  A    between atoms: _197  and  _200
REMARK   89  A    between atoms: _200  and  _201
REMARK   90  A    between atoms: _204  and  _206
REMARK   91  A    between atoms: _206  and  _207
REMARK   92  A    between atoms: _206  and  _209
REMARK   93  A    between atoms: _209  and  _210
REMARK   94  A    between atoms: _212  and  _214
REMARK   95  A    between atoms: _214  and  _215
REMARK   96  A    between atoms: _219  and  _220
REMARK   97  A    between atoms: _225  and  _227
REMARK   98  A    between atoms: _227  and  _228
REMARK   99  A    between atoms: _227  and  _230
REMARK  100  A    between atoms: _230  and  _231
REMARK  101  A    between atoms: _237  and  _239
REMARK  102  A    between atoms: _239  and  _240
REMARK  103  A    between atoms: _239  and  _242
REMARK  104  A    between atoms: _245  and  _247
REMARK  105  A    between atoms: _247  and  _248
REMARK  106  A    between atoms: _251  and  _253
REMARK  107  A    between atoms: _253  and  _254
REMARK  108  A    between atoms: _253  and  _256
REMARK  109  A    between atoms: _259  and  _261
REMARK  110  A    between atoms: _261  and  _262
REMARK  111  A    between atoms: _264  and  _266
REMARK  112  A    between atoms: _266  and  _267
REMARK  113  A    between atoms: _266  and  _269
REMARK  114  A    between atoms: _269  and  _270
REMARK  115  A    between atoms: _276  and  _278
REMARK  116  A    between atoms: _278  and  _279
REMARK  117  A    between atoms: _278  and  _281
REMARK  118  A    between atoms: _281  and  _282
REMARK  119  A    between atoms: _287  and  _289
REMARK  120  A    between atoms: _289  and  _290
REMARK  121  A    between atoms: _289  and  _292
REMARK  122  A    between atoms: _292  and  _293
REMARK  123  A    between atoms: _293  and  _294
REMARK  124  A    between atoms: _294  and  _295
REMARK  125  A    between atoms: _304  and  _306
REMARK  126  A    between atoms: _306  and  _307
REMARK  127  A    between atoms: _306  and  _309
REMARK  128  A    between atoms: _309  and  _310
REMARK  129  A    between atoms: _316  and  _318
REMARK  130  A    between atoms: _318  and  _319
REMARK  131  A    between atoms: _321  and  _323
REMARK  132  A    between atoms: _323  and  _324
REMARK  133  A    between atoms: _323  and  _326
REMARK  134  A    between atoms: _326  and  _327
REMARK  135  A    between atoms: _329  and  _331
REMARK  136  A    between atoms: _331  and  _332
REMARK  137  A    between atoms: _331  and  _334
REMARK  138  A    between atoms: _334  and  _335
REMARK  139  A    between atoms: _337  and  _339
REMARK  140  A    between atoms: _339  and  _340
REMARK  141  A    between atoms: _339  and  _342
REMARK  142  A    between atoms: _342  and  _343
REMARK  143  A    between atoms: _343  and  _344
REMARK  144  A    between atoms: _344  and  _345
REMARK  145  A    between atoms: _354  and  _356
REMARK  146  A    between atoms: _356  and  _357
REMARK  147  A    between atoms: _356  and  _359
REMARK  148  A    between atoms: _359  and  _360
REMARK  149  A    between atoms: _360  and  _361
REMARK  150  A    between atoms: _363  and  _365
REMARK  151  A    between atoms: _365  and  _366
REMARK  152  A    between atoms: _368  and  _370
REMARK  153  A    between atoms: _370  and  _371
REMARK  154  A    between atoms: _373  and  _375
REMARK  155  A    between atoms: _375  and  _376
REMARK  156  A    between atoms: _375  and  _378
REMARK  157  A    between atoms: _378  and  _379
REMARK  158  A    between atoms: _382  and  _384
REMARK  159  A    between atoms: _384  and  _385
REMARK  160  A    between atoms: _384  and  _387
REMARK  161  A    between atoms: _390  and  _392
REMARK  162  A    between atoms: _392  and  _393
REMARK  163  A    between atoms: _392  and  _395
REMARK  164  A    between atoms: _395  and  _396
REMARK  165  A    between atoms: _396  and  _397
REMARK  166  A    between atoms: _400  and  _402
REMARK  167  A    between atoms: _402  and  _403
REMARK  168  A    between atoms: _402  and  _405
REMARK  169  A    between atoms: _405  and  _406
REMARK  170  A    between atoms: _411  and  _413
REMARK  171  A    between atoms: _413  and  _414
REMARK  172  A    between atoms: _413  and  _416
REMARK  173  A    between atoms: _416  and  _417
REMARK  174  A    between atoms: _420  and  _422
REMARK  175  A    between atoms: _422  and  _423
REMARK  176  A    between atoms: _422  and  _425
REMARK  177  A    between atoms: _425  and  _426
REMARK  178  A    between atoms: _426  and  _427
REMARK  179  A    between atoms: _429  and  _431
REMARK  180  A    between atoms: _431  and  _432
REMARK  181  A    between atoms: _431  and  _434
REMARK  182  A    between atoms: _434  and  _435
REMARK  183  A    between atoms: _438  and  _440
REMARK  184  A    between atoms: _440  and  _441
REMARK  185  A    between atoms: _440  and  _443
REMARK  186  A    between atoms: _443  and  _444
REMARK  187  A    between atoms: _444  and  _445
REMARK  188  A    between atoms: _445  and  _446
REMARK  189  A    between atoms: _455  and  _457
REMARK  190  A    between atoms: _457  and  _458
REMARK  191  A    between atoms: _457  and  _460
REMARK  192  A    between atoms: _460  and  _461
REMARK  193  A    between atoms: _463  and  _465
REMARK  194  A    between atoms: _465  and  _466
REMARK  195  A    between atoms: _465  and  _468
REMARK  196  A    between atoms: _468  and  _469
REMARK  197  A    between atoms: _474  and  _476
REMARK  198  A    between atoms: _476  and  _477
REMARK  199  A    between atoms: _476  and  _479
REMARK  200  A    between atoms: _479  and  _480
REMARK  201  A    between atoms: _482  and  _484
REMARK  202  A    between atoms: _484  and  _485
REMARK  203  A    between atoms: _484  and  _487
REMARK  204  A    between atoms: _487  and  _488
REMARK  205  A    between atoms: _488  and  _489
REMARK  206  A    between atoms: _489  and  _490
REMARK  207  A    between atoms: _490  and  _491
REMARK  208  A    between atoms: _495  and  _497
REMARK  209  A    between atoms: _497  and  _498
REMARK  210  A    between atoms: _497  and  _500
REMARK  211  A    between atoms: _500  and  _501
REMARK  212  A    between atoms: _504  and  _506
REMARK  213  A    between atoms: _506  and  _507
REMARK  214  A    between atoms: _506  and  _509
REMARK  215  A    between atoms: _509  and  _510
REMARK  216  A    between atoms: _516  and  _518
REMARK  217  A    between atoms: _518  and  _519
REMARK  218  A    between atoms: _518  and  _521
REMARK  219  A    between atoms: _521  and  _522
REMARK  220  A    between atoms: _522  and  _523
REMARK  221  A    between atoms: _523  and  _524
REMARK                            x       y       z     vdW  Elec       q    Type
REMARK                         _______ _______ _______ _____ _____    ______ ____
ROOT
ATOM      1  CA  SER A   6      55.878  26.435  16.871  0.00  0.00    +0.178 C 
ENDROOT
BRANCH   1   2
ATOM      2  C   SER A   6      56.172  26.975  15.495  0.00  0.00    +0.243 C 
ATOM      3  N   ALA A   7      56.035  28.274  15.294  0.00  0.00    -0.297 N 
ATOM      4  H   ALA A   7      55.904  28.899  16.115  0.00  0.00    +0.150 HD
ATOM      5  O   SER A   6      56.416  26.186  14.582  0.00  0.00    -0.273 OA
BRANCH   3   6
ATOM      6  CA  ALA A   7      56.062  28.859  13.957  0.00  0.00    +0.149 C 
ATOM      7  CB  ALA A   7      55.639  30.327  14.008  0.00  0.00    +0.031 C 
BRANCH   6   8
ATOM      8  C   ALA A   7      57.376  28.723  13.222  0.00  0.00    +0.244 C 
ATOM      9  O   ALA A   7      58.356  29.330  13.643  0.00  0.00    -0.273 OA
ATOM     10  N   PRO A   8      57.404  28.019  12.071  0.00  0.00    -0.272 N 
ATOM     11  CD  PRO A   8      56.348  27.185  11.458  0.00  0.00    +0.094 C 
ATOM     12  CG  PRO A   8      57.156  26.259  10.561  0.00  0.00    +0.024 C 
ATOM     13  CB  PRO A   8      58.228  27.178  10.045  0.00  0.00    +0.031 C 
ATOM     14  CA  PRO A   8      58.658  27.943  11.295  0.00  0.00    +0.152 C 
BRANCH  14  15
ATOM     15  C   PRO A   8      59.252  29.309  10.940  0.00  0.00    +0.241 C 
ATOM     16  O   PRO A   8      60.481  29.467  10.954  0.00  0.00    -0.273 OA
ATOM     17  N   PHE A   9      58.385  30.304  10.655  0.00  0.00    -0.297 N 
ATOM     18  H   PHE A   9      57.369  30.084  10.672  0.00  0.00    +0.150 HD
BRANCH  17  19
ATOM     19  CA  PHE A   9      58.786  31.677  10.323  0.00  0.00    +0.153 C 
BRANCH  19  20
ATOM     20  C   PHE A   9      59.710  32.244  11.400  0.00  0.00    +0.241 C 
ATOM     21  N   VAL A  10      59.362  31.977  12.681  0.00  0.00    -0.297 N 
ATOM     22  H   VAL A  10      58.505  31.419  12.872  0.00  0.00    +0.150 HD
ATOM     23  O   PHE A   9      60.730  32.893  11.086  0.00  0.00    -0.273 OA
BRANCH  21  24
ATOM     24  CA  VAL A  10      60.165  32.456  13.792  0.00  0.00    +0.149 C 
BRANCH  24  25
ATOM     25  C   VAL A  10      61.412  31.574  13.981  0.00  0.00    +0.241 C 
ATOM     26  O   VAL A  10      62.482  32.109  14.255  0.00  0.00    -0.273 OA
ATOM     27  N   ALA A  11      61.280  30.234  13.870  0.00  0.00    -0.298 N 
ATOM     28  H   ALA A  11      60.351  29.820  13.654  0.00  0.00    +0.150 HD
BRANCH  27  29
ATOM     29  CA  ALA A  11      62.450  29.357  14.055  0.00  0.00    +0.137 C 
ATOM     30  CB  ALA A  11      62.062  27.902  13.834  0.00  0.00    +0.030 C 
BRANCH  29  31
ATOM     31  C   ALA A  11      63.574  29.736  13.102  0.00  0.00    +0.227 C 
ATOM     32  O   ALA A  11      64.735  29.793  13.524  0.00  0.00    -0.286 OA
ENDBRANCH  29  31
ENDBRANCH  27  29
ENDBRANCH  24  25
BRANCH  24  33
ATOM     33  CB  VAL A  10      59.285  32.497  15.070  0.00  0.00    +0.027 C 
ATOM     34  CG2 VAL A  10      60.132  32.693  16.328  0.00  0.00    +0.002 C 
ATOM     35  CG1 VAL A  10      58.223  33.593  14.962  0.00  0.00    +0.002 C 
ENDBRANCH  24  33
ENDBRANCH  21  24
ENDBRANCH  19  20
BRANCH  19  36
ATOM     36  CB  PHE A   9      57.510  32.520  10.232  0.00  0.00    +0.055 C 
BRANCH  36  37
ATOM     37  CG  PHE A   9      57.637  33.965   9.839  0.00  0.00    -0.020 A 
ATOM     38  CD2 PHE A   9      57.615  34.967  10.803  0.00  0.00    -0.004 A 
ATOM     39  CE2 PHE A   9      57.655  36.313  10.434  0.00  0.00    -0.000 A 
ATOM     40  CZ  PHE A   9      57.753  36.666   9.111  0.00  0.00    -0.000 A 
ATOM     41  CE1 PHE A   9      57.761  35.685   8.135  0.00  0.00    -0.000 A 
ATOM     42  CD1 PHE A   9      57.707  34.335   8.500  0.00  0.00    -0.004 A 
ENDBRANCH  36  37
ENDBRANCH  19  36
ENDBRANCH  17  19
ENDBRANCH  14  15
ENDBRANCH   6   8
ENDBRANCH   3   6
ENDBRANCH   1   2
BRANCH   1  45
ATOM     43  C   LEU A   5      57.049  26.592  19.023  0.00  0.00    +0.241 C 
ATOM     44  O   LEU A   5      57.456  25.412  19.008  0.00  0.00    -0.273 OA
ATOM     45  N   SER A   6      56.377  27.162  18.009  0.00  0.00    -0.295 N 
ATOM     46  H   SER A   6      56.208  28.187  18.048  0.00  0.00    +0.150 HD
BRANCH  43  47
ATOM     47  CA  LEU A   5      57.199  27.496  20.250  0.00  0.00    +0.149 C 
BRANCH  47  50
ATOM     48  C   GLY A   4      54.875  26.897  20.872  0.00  0.00    +0.243 C 
ATOM     49  O   GLY A   4      55.128  25.690  20.970  0.00  0.00    -0.273 OA
ATOM     50  N   LEU A   5      55.825  27.828  20.628  0.00  0.00    -0.297 N 
ATOM     51  H   LEU A   5      55.566  28.832  20.713  0.00  0.00    +0.150 HD
BRANCH  48  52
ATOM     52  CA  GLY A   4      53.449  27.360  21.053  0.00  0.00    +0.176 C 
BRANCH  52  55
ATOM     53  C   VAL A   3      53.437  29.575  22.017  0.00  0.00    +0.241 C 
ATOM     54  O   VAL A   3      53.860  29.150  23.098  0.00  0.00    -0.273 OA
ATOM     55  N   GLY A   4      53.248  28.801  20.954  0.00  0.00    -0.295 N 
ATOM     56  H   GLY A   4      52.956  29.223  20.050  0.00  0.00    +0.150 HD
BRANCH  53  57
ATOM     57  CA  VAL A   3      53.144  31.058  21.832  0.00  0.00    +0.149 C 
BRANCH  57  60
ATOM     58  C   SER A   2      55.014  31.378  20.279  0.00  0.00    +0.243 C 
ATOM     59  O   SER A   2      55.784  30.712  20.971  0.00  0.00    -0.273 OA
ATOM     60  N   VAL A   3      53.723  31.595  20.611  0.00  0.00    -0.297 N 
ATOM     61  H   VAL A   3      53.126  32.162  19.976  0.00  0.00    +0.150 HD
BRANCH  58  62
ATOM     62  CA  SER A   2      55.505  32.024  19.014  0.00  0.00    +0.178 C 
BRANCH  62  64
ATOM     63  C   ILE A   1      56.380  34.279  18.657  0.00  0.00    +0.238 C 
ATOM     64  N   SER A   2      56.286  33.190  19.424  0.00  0.00    -0.295 N 
ATOM     65  H   SER A   2      56.782  33.171  20.338  0.00  0.00    +0.150 HD
ATOM     66  O   ILE A   1      55.855  34.378  17.555  0.00  0.00    -0.274 OA
BRANCH  63  67
ATOM     67  CA  ILE A   1      57.105  35.469  19.248  0.00  0.00    +0.145 C 
BRANCH  67  68
ATOM     68  N   ILE A   1      58.217  35.841  18.383  0.00  0.00    -0.238 NA
ATOM     69  H   ILE A   1      58.014  36.289  17.467  0.00  0.00    +0.142 HD
ENDBRANCH  67  68
BRANCH  67  70
ATOM     70  CB  ILE A   1      56.113  36.665  19.372  0.00  0.00    +0.025 C 
ATOM     71  CG2 ILE A   1      54.966  36.304  20.361  0.00  0.00    +0.002 C 
BRANCH  70  72
ATOM     72  CG1 ILE A   1      56.840  37.964  19.788  0.00  0.00    +0.002 C 
ATOM     73  CD1 ILE A   1      55.989  39.234  19.574  0.00  0.00    +0.000 C 
ENDBRANCH  70  72
ENDBRANCH  67  70
ENDBRANCH  63  67
ENDBRANCH  62  64
BRANCH  62  74
ATOM     74  CB  SER A   2      56.341  31.042  18.195  0.00  0.00    +0.166 C 
BRANCH  74  75
ATOM     75  OG  SER A   2      55.520  29.952  17.797  0.00  0.00    -0.380 OA
ATOM     76  H   SER A   2      54.769  30.290  17.248  0.00  0.00    +0.211 HD
ENDBRANCH  74  75
ENDBRANCH  62  74
ENDBRANCH  58  62
ENDBRANCH  57  60
BRANCH  57  77
ATOM     77  CB  VAL A   3      51.634  31.372  21.915  0.00  0.00    +0.027 C 
ATOM     78  CG2 VAL A   3      50.962  30.593  23.041  0.00  0.00    +0.002 C 
ATOM     79  CG1 VAL A   3      51.396  32.872  22.077  0.00  0.00    +0.002 C 
ENDBRANCH  57  77
ENDBRANCH  53  57
ENDBRANCH  52  55
ENDBRANCH  48  52
ENDBRANCH  47  50
BRANCH  47  80
ATOM     80  CB  LEU A   5      58.000  26.836  21.380  0.00  0.00    +0.029 C 
BRANCH  80  81
ATOM     81  CG  LEU A   5      58.148  27.645  22.675  0.00  0.00    +0.002 C 
ATOM     82  CD2 LEU A   5      59.120  26.951  23.614  0.00  0.00    +0.000 C 
ATOM     83  CD1 LEU A   5      58.659  29.060  22.402  0.00  0.00    +0.000 C 
ENDBRANCH  80  81
ENDBRANCH  47  80
ENDBRANCH  43  47
ENDBRANCH   1  45
BRANCH   1  84
ATOM     84  CB  SER A   6      54.355  26.349  17.040  0.00  0.00    +0.166 C 
BRANCH  84  85
ATOM     85  OG  SER A   6      53.630  26.142  15.838  0.00  0.00    -0.380 OA
ATOM     86  H   SER A   6      53.805  26.891  15.215  0.00  0.00    +0.211 HD
ENDBRANCH  84  85
ENDBRANCH   1  84
TORSDOF 33
REMARK  Name = ../refined-set-2016/4bb9/4bb9_pocket.pdb
REMARK  221 active torsions:
REMARK  status: ('A' for Active; 'I' for Inactive)
REMARK    1  A    between atoms: _1  and  _3
REMARK    2  A    between atoms: _3  and  _4
REMARK    3  A    between atoms: _3  and  _6
REMARK    4  A    between atoms: _6  and  _7
REMARK    5  A    between atoms: _10  and  _12
REMARK    6  A    between atoms: _12  and  _13
REMARK    7  A    between atoms: _12  and  _15
REMARK    8  A    between atoms: _15  and  _16
REMARK    9  A    between atoms: _16  and  _17
REMARK   10  A    between atoms: _20  and  _22
REMARK   11  A    between atoms: _22  and  _23
REMARK   12  A    between atoms: _22  and  _25
REMARK   13  A    between atoms: _25  and  _26
REMARK   14  A    between atoms: _28  and  _30
REMARK   15  A    between atoms: _30  and  _31
REMARK   16  A    between atoms: _33  and  _35
REMARK   17  A    between atoms: _35  and  _36
REMARK   18  A    between atoms: _38  and  _40
REMARK   19  A    between atoms: _40  and  _41
REMARK   20  A    between atoms: _43  and  _45
REMARK   21  A    between atoms: _45  and  _46
REMARK   22  A    between atoms: _45  and  _48
REMARK   23  A    between atoms: _48  and  _49
REMARK   24  A    between atoms: _52  and  _54
REMARK   25  A    between atoms: _54  and  _55
REMARK   26  A    between atoms: _54  and  _57
REMARK   27  A    between atoms: _57  and  _58
REMARK   28  A    between atoms: _60  and  _62
REMARK   29  A    between atoms: _62  and  _63
REMARK   30  A    between atoms: _65  and  _67
REMARK   31  A    between atoms: _67  and  _68
REMARK   32  A    between atoms: _67  and  _70
REMARK   33  A    between atoms: _70  and  _71
REMARK   34  A    between atoms: _71  and  _72
REMARK   35  A    between atoms: _72  and  _73
REMARK   36  A    between atoms: _82  and  _84
REMARK   37  A    between atoms: _84  and  _85
REMARK   38  A    between atoms: _84  and  _87
REMARK   39  A    between atoms: _87  and  _88
REMARK   40  A    between atoms: _88  and  _89
REMARK   41  A    between atoms: _91  and  _93
REMARK   42  A    between atoms: _93  and  _94
REMARK   43  A    between atoms: _97  and  _99
REMARK   44  A    between atoms: _99  and  _100
REMARK   45  A    between atoms: _99  and  _102
REMARK   46  A    between atoms: _102  and  _103
REMARK   47  A    between atoms: _105  and  _107
REMARK   48  A    between atoms: _107  and  _108
REMARK   49  A    between atoms: _107  and  _110
REMARK   50  A    between atoms: _110  and  _111
REMARK   51  A    between atoms: _111  and  _112
REMARK   52  A    between atoms: _112  and  _113
REMARK   53  A    between atoms: _122  and  _124
REMARK   54  A    between atoms: _124  and  _125
REMARK   55  A    between atoms: _124  and  _127
REMARK   56  A    between atoms: _127  and  _128
REMARK   57  A    between atoms: _128  and  _129
REMARK   58  A    between atoms: _132  and  _134
REMARK   59  A    between atoms: _134  and  _135
REMARK   60  A    between atoms: _137  and  _139
REMARK   61  A    between atoms: _139  and  _140
REMARK   62  A    between atoms: _139  and  _142
REMARK   63  A    between atoms: _142  and  _143
REMARK   64  A    between atoms: _146  and  _148
REMARK   65  A    between atoms: _148  and  _149
REMARK   66  A    between atoms: _148  and  _151
REMARK   67  A    between atoms: _151  and  _152
REMARK   68  A    between atoms: _152  and  _153
REMARK   69  A    between atoms: _156  and  _158
REMARK   70  A    between atoms: _158  and  _159
REMARK   71  A    between atoms: _158  and  _161
REMARK   72  A    between atoms: _161  and  _162
REMARK   73  A    between atoms: _165  and  _167
REMARK   74  A    between atoms: _167  and  _168
REMARK   75  A    between atoms: _167  and  _170
REMARK   76  A    between atoms: _170  and  _171
REMARK   77  A    between atoms: _174  and  _176
REMARK   78  A    between atoms: _176  and  _177
REMARK   79  A    between atoms: _176  and  _179
REMARK   80  A    between atoms: _179  and  _180
REMARK   81  A    between atoms: _182  and  _184
REMARK   82  A    between atoms: _184  and  _185
REMARK   83  A    between atoms: _184  and  _187
REMARK   84  A    between atoms: _190  and  _192
REMARK   85  A    between atoms: _192  and  _193
REMARK   86  A    between atoms: _195  and  _197
REMARK   87  A    between atoms: _197  and  _198
REMARK   88  A    between atoms: _197  and  _200
REMARK   89  A    between atoms: _200  and  _201
REMARK   90  A    between atoms: _204  and  _206
REMARK   91  A    between atoms: _206  and  _207
REMARK   92  A    between atoms: _206  and  _209
REMARK   93  A    between atoms: _209  and  _210
REMARK   94  A    between atoms: _212  and  _214
REMARK   95  A    between atoms: _214  and  _215
REMARK   96  A    between atoms: _219  and  _220
REMARK   97  A    between atoms: _225  and  _227
REMARK   98  A    between atoms: _227  and  _228
REMARK   99  A    between atoms: _227  and  _230
REMARK  100  A    between atoms: _230  and  _231
REMARK  101  A    between atoms: _237  and  _239
REMARK  102  A    between atoms: _239  and  _240
REMARK  103  A    between atoms: _239  and  _242
REMARK  104  A    between atoms: _245  and  _247
REMARK  105  A    between atoms: _247  and  _248
REMARK  106  A    between atoms: _251  and  _253
REMARK  107  A    between atoms: _253  and  _254
REMARK  108  A    between atoms: _253  and  _256
REMARK  109  A    between atoms: _259  and  _261
REMARK  110  A    between atoms: _261  and  _262
REMARK  111  A    between atoms: _264  and  _266
REMARK  112  A    between atoms: _266  and  _267
REMARK  113  A    between atoms: _266  and  _269
REMARK  114  A    between atoms: _269  and  _270
REMARK  115  A    between atoms: _276  and  _278
REMARK  116  A    between atoms: _278  and  _279
REMARK  117  A    between atoms: _278  and  _281
REMARK  118  A    between atoms: _281  and  _282
REMARK  119  A    between atoms: _287  and  _289
REMARK  120  A    between atoms: _289  and  _290
REMARK  121  A    between atoms: _289  and  _292
REMARK  122  A    between atoms: _292  and  _293
REMARK  123  A    between atoms: _293  and  _294
REMARK  124  A    between atoms: _294  and  _295
REMARK  125  A    between atoms: _304  and  _306
REMARK  126  A    between atoms: _306  and  _307
REMARK  127  A    between atoms: _306  and  _309
REMARK  128  A    between atoms: _309  and  _310
REMARK  129  A    between atoms: _316  and  _318
REMARK  130  A    between atoms: _318  and  _319
REMARK  131  A    between atoms: _321  and  _323
REMARK  132  A    between atoms: _323  and  _324
REMARK  133  A    between atoms: _323  and  _326
REMARK  134  A    between atoms: _326  and  _327
REMARK  135  A    between atoms: _329  and  _331
REMARK  136  A    between atoms: _331  and  _332
REMARK  137  A    between atoms: _331  and  _334
REMARK  138  A    between atoms: _334  and  _335
REMARK  139  A    between atoms: _337  and  _339
REMARK  140  A    between atoms: _339  and  _340
REMARK  141  A    between atoms: _339  and  _342
REMARK  142  A    between atoms: _342  and  _343
REMARK  143  A    between atoms: _343  and  _344
REMARK  144  A    between atoms: _344  and  _345
REMARK  145  A    between atoms: _354  and  _356
REMARK  146  A    between atoms: _356  and  _357
REMARK  147  A    between atoms: _356  and  _359
REMARK  148  A    between atoms: _359  and  _360
REMARK  149  A    between atoms: _360  and  _361
REMARK  150  A    between atoms: _363  and  _365
REMARK  151  A    between atoms: _365  and  _366
REMARK  152  A    between atoms: _368  and  _370
REMARK  153  A    between atoms: _370  and  _371
REMARK  154  A    between atoms: _373  and  _375
REMARK  155  A    between atoms: _375  and  _376
REMARK  156  A    between atoms: _375  and  _378
REMARK  157  A    between atoms: _378  and  _379
REMARK  158  A    between atoms: _382  and  _384
REMARK  159  A    between atoms: _384  and  _385
REMARK  160  A    between atoms: _384  and  _387
REMARK  161  A    between atoms: _390  and  _392
REMARK  162  A    between atoms: _392  and  _393
REMARK  163  A    between atoms: _392  and  _395
REMARK  164  A    between atoms: _395  and  _396
REMARK  165  A    between atoms: _396  and  _397
REMARK  166  A    between atoms: _400  and  _402
REMARK  167  A    between atoms: _402  and  _403
REMARK  168  A    between atoms: _402  and  _405
REMARK  169  A    between atoms: _405  and  _406
REMARK  170  A    between atoms: _411  and  _413
REMARK  171  A    between atoms: _413  and  _414
REMARK  172  A    between atoms: _413  and  _416
REMARK  173  A    between atoms: _416  and  _417
REMARK  174  A    between atoms: _420  and  _422
REMARK  175  A    between atoms: _422  and  _423
REMARK  176  A    between atoms: _422  and  _425
REMARK  177  A    between atoms: _425  and  _426
REMARK  178  A    between atoms: _426  and  _427
REMARK  179  A    between atoms: _429  and  _431
REMARK  180  A    between atoms: _431  and  _432
REMARK  181  A    between atoms: _431  and  _434
REMARK  182  A    between atoms: _434  and  _435
REMARK  183  A    between atoms: _438  and  _440
REMARK  184  A    between atoms: _440  and  _441
REMARK  185  A    between atoms: _440  and  _443
REMARK  186  A    between atoms: _443  and  _444
REMARK  187  A    between atoms: _444  and  _445
REMARK  188  A    between atoms: _445  and  _446
REMARK  189  A    between atoms: _455  and  _457
REMARK  190  A    between atoms: _457  and  _458
REMARK  191  A    between atoms: _457  and  _460
REMARK  192  A    between atoms: _460  and  _461
REMARK  193  A    between atoms: _463  and  _465
REMARK  194  A    between atoms: _465  and  _466
REMARK  195  A    between atoms: _465  and  _468
REMARK  196  A    between atoms: _468  and  _469
REMARK  197  A    between atoms: _474  and  _476
REMARK  198  A    between atoms: _476  and  _477
REMARK  199  A    between atoms: _476  and  _479
REMARK  200  A    between atoms: _479  and  _480
REMARK  201  A    between atoms: _482  and  _484
REMARK  202  A    between atoms: _484  and  _485
REMARK  203  A    between atoms: _484  and  _487
REMARK  204  A    between atoms: _487  and  _488
REMARK  205  A    between atoms: _488  and  _489
REMARK  206  A    between atoms: _489  and  _490
REMARK  207  A    between atoms: _490  and  _491
REMARK  208  A    between atoms: _495  and  _497
REMARK  209  A    between atoms: _497  and  _498
REMARK  210  A    between atoms: _497  and  _500
REMARK  211  A    between atoms: _500  and  _501
REMARK  212  A    between atoms: _504  and  _506
REMARK  213  A    between atoms: _506  and  _507
REMARK  214  A    between atoms: _506  and  _509
REMARK  215  A    between atoms: _509  and  _510
REMARK  216  A    between atoms: _516  and  _518
REMARK  217  A    between atoms: _518  and  _519
REMARK  218  A    between atoms: _518  and  _521
REMARK  219  A    between atoms: _521  and  _522
REMARK  220  A    between atoms: _522  and  _523
REMARK  221  A    between atoms: _523  and  _524
REMARK                            x       y       z     vdW  Elec       q    Type
REMARK                         _______ _______ _______ _____ _____    ______ ____
ROOT
ATOM      1  CA  PHE A   3      54.628  29.736  26.608  0.00  0.00    +0.153 C 
ENDROOT
BRANCH   1   4
ATOM      2  C   GLY A   2      56.171  31.117  25.352  0.00  0.00    +0.243 C 
ATOM      3  O   GLY A   2      56.678  31.574  26.384  0.00  0.00    -0.273 OA
ATOM      4  N   PHE A   3      55.234  30.162  25.358  0.00  0.00    -0.297 N 
ATOM      5  H   PHE A   3      54.938  29.722  24.463  0.00  0.00    +0.150 HD
BRANCH   2   6
ATOM      6  CA  GLY A   2      56.579  31.666  24.009  0.00  0.00    +0.176 C 
BRANCH   6   8
ATOM      7  C   VAL A   1      57.942  33.489  23.152  0.00  0.00    +0.238 C 
ATOM      8  N   GLY A   2      57.613  32.680  24.152  0.00  0.00    -0.296 N 
ATOM      9  H   GLY A   2      58.108  32.773  25.062  0.00  0.00    +0.150 HD
ATOM     10  O   VAL A   1      57.444  33.421  22.029  0.00  0.00    -0.274 OA
BRANCH   7  11
ATOM     11  CA  VAL A   1      58.994  34.532  23.460  0.00  0.00    +0.145 C 
BRANCH  11  12
ATOM     12  CB  VAL A   1      58.403  35.964  23.401  0.00  0.00    +0.025 C 
ATOM     13  CG2 VAL A   1      57.188  36.111  24.320  0.00  0.00    +0.002 C 
ATOM     14  CG1 VAL A   1      59.468  36.999  23.751  0.00  0.00    +0.002 C 
ENDBRANCH  11  12
BRANCH  11  15
ATOM     15  N   VAL A   1      60.082  34.370  22.502  0.00  0.00    -0.238 NA
ATOM     16  H   VAL A   1      59.892  34.562  21.498  0.00  0.00    +0.142 HD
ENDBRANCH  11  15
ENDBRANCH   7  11
ENDBRANCH   6   8
ENDBRANCH   2   6
ENDBRANCH   1   4
BRANCH   1  17
ATOM     17  C   PHE A   3      54.567  28.254  26.823  0.00  0.00    +0.241 C 
ATOM     18  O   PHE A   3      53.626  27.733  27.441  0.00  0.00    -0.273 OA
ATOM     19  N   ASN A   4      55.588  27.574  26.307  0.00  0.00    -0.298 N 
ATOM     20  H   ASN A   4      56.267  28.063  25.689  0.00  0.00    +0.150 HD
BRANCH  19  21
ATOM     21  CA  ASN A   4      55.771  26.166  26.591  0.00  0.00    +0.146 C 
BRANCH  21  22
ATOM     22  C   ASN A   4      57.174  25.988  27.135  0.00  0.00    +0.227 C 
ATOM     23  O   ASN A   4      58.079  26.739  26.769  0.00  0.00    -0.286 OA
ENDBRANCH  21  22
BRANCH  21  24
ATOM     24  CB  ASN A   4      55.708  25.303  25.305  0.00  0.00    +0.112 C 
BRANCH  24  25
ATOM     25  CG  ASN A   4      54.318  24.860  24.917  0.00  0.00    +0.222 C 
ATOM     26  OD1 ASN A   4      53.479  24.491  25.765  0.00  0.00    -0.275 OA
ATOM     27  ND2 ASN A   4      54.041  24.880  23.617  0.00  0.00    -0.329 N 
ATOM     28 HD21 ASN A   4      53.103  24.583  23.281  0.00  0.00    +0.145 HD
ATOM     29 HD22 ASN A   4      54.762  25.193  22.936  0.00  0.00    +0.145 HD
ENDBRANCH  24  25
ENDBRANCH  21  24
ENDBRANCH  19  21
ENDBRANCH   1  17
BRANCH   1  30
ATOM     30  CB  PHE A   3      53.276  30.440  26.810  0.00  0.00    +0.055 C 
BRANCH  30  31
ATOM     31  CG  PHE A   3      53.460  31.938  26.776  0.00  0.00    -0.020 A 
ATOM     32  CD2 PHE A   3      53.877  32.629  27.907  0.00  0.00    -0.004 A 
ATOM     33  CE2 PHE A   3      54.117  34.004  27.851  0.00  0.00    -0.000 A 
ATOM     34  CZ  PHE A   3      53.947  34.687  26.665  0.00  0.00    -0.000 A 
ATOM     35  CE1 PHE A   3      53.556  34.018  25.534  0.00  0.00    -0.000 A 
ATOM     36  CD1 PHE A   3      53.289  32.651  25.590  0.00  0.00    -0.004 A 
ENDBRANCH  30  31
ENDBRANCH   1  30
TORSDOF 13
REMARK  Name = ../refined-set-2016/4bb9/4bb9_pocket.pdb
REMARK  221 active torsions:
REMARK  status: ('A' for Active; 'I' for Inactive)
REMARK    1  A    between atoms: _1  and  _3
REMARK    2  A    between atoms: _3  and  _4
REMARK    3  A    between atoms: _3  and  _6
REMARK    4  A    between atoms: _6  and  _7
REMARK    5  A    between atoms: _10  and  _12
REMARK    6  A    between atoms: _12  and  _13
REMARK    7  A    between atoms: _12  and  _15
REMARK    8  A    between atoms: _15  and  _16
REMARK    9  A    between atoms: _16  and  _17
REMARK   10  A    between atoms: _20  and  _22
REMARK   11  A    between atoms: _22  and  _23
REMARK   12  A    between atoms: _22  and  _25
REMARK   13  A    between atoms: _25  and  _26
REMARK   14  A    between atoms: _28  and  _30
REMARK   15  A    between atoms: _30  and  _31
REMARK   16  A    between atoms: _33  and  _35
REMARK   17  A    between atoms: _35  and  _36
REMARK   18  A    between atoms: _38  and  _40
REMARK   19  A    between atoms: _40  and  _41
REMARK   20  A    between atoms: _43  and  _45
REMARK   21  A    between atoms: _45  and  _46
REMARK   22  A    between atoms: _45  and  _48
REMARK   23  A    between atoms: _48  and  _49
REMARK   24  A    between atoms: _52  and  _54
REMARK   25  A    between atoms: _54  and  _55
REMARK   26  A    between atoms: _54  and  _57
REMARK   27  A    between atoms: _57  and  _58
REMARK   28  A    between atoms: _60  and  _62
REMARK   29  A    between atoms: _62  and  _63
REMARK   30  A    between atoms: _65  and  _67
REMARK   31  A    between atoms: _67  and  _68
REMARK   32  A    between atoms: _67  and  _70
REMARK   33  A    between atoms: _70  and  _71
REMARK   34  A    between atoms: _71  and  _72
REMARK   35  A    between atoms: _72  and  _73
REMARK   36  A    between atoms: _82  and  _84
REMARK   37  A    between atoms: _84  and  _85
REMARK   38  A    between atoms: _84  and  _87
REMARK   39  A    between atoms: _87  and  _88
REMARK   40  A    between atoms: _88  and  _89
REMARK   41  A    between atoms: _91  and  _93
REMARK   42  A    between atoms: _93  and  _94
REMARK   43  A    between atoms: _97  and  _99
REMARK   44  A    between atoms: _99  and  _100
REMARK   45  A    between atoms: _99  and  _102
REMARK   46  A    between atoms: _102  and  _103
REMARK   47  A    between atoms: _105  and  _107
REMARK   48  A    between atoms: _107  and  _108
REMARK   49  A    between atoms: _107  and  _110
REMARK   50  A    between atoms: _110  and  _111
REMARK   51  A    between atoms: _111  and  _112
REMARK   52  A    between atoms: _112  and  _113
REMARK   53  A    between atoms: _122  and  _124
REMARK   54  A    between atoms: _124  and  _125
REMARK   55  A    between atoms: _124  and  _127
REMARK   56  A    between atoms: _127  and  _128
REMARK   57  A    between atoms: _128  and  _129
REMARK   58  A    between atoms: _132  and  _134
REMARK   59  A    between atoms: _134  and  _135
REMARK   60  A    between atoms: _137  and  _139
REMARK   61  A    between atoms: _139  and  _140
REMARK   62  A    between atoms: _139  and  _142
REMARK   63  A    between atoms: _142  and  _143
REMARK   64  A    between atoms: _146  and  _148
REMARK   65  A    between atoms: _148  and  _149
REMARK   66  A    between atoms: _148  and  _151
REMARK   67  A    between atoms: _151  and  _152
REMARK   68  A    between atoms: _152  and  _153
REMARK   69  A    between atoms: _156  and  _158
REMARK   70  A    between atoms: _158  and  _159
REMARK   71  A    between atoms: _158  and  _161
REMARK   72  A    between atoms: _161  and  _162
REMARK   73  A    between atoms: _165  and  _167
REMARK   74  A    between atoms: _167  and  _168
REMARK   75  A    between atoms: _167  and  _170
REMARK   76  A    between atoms: _170  and  _171
REMARK   77  A    between atoms: _174  and  _176
REMARK   78  A    between atoms: _176  and  _177
REMARK   79  A    between atoms: _176  and  _179
REMARK   80  A    between atoms: _179  and  _180
REMARK   81  A    between atoms: _182  and  _184
REMARK   82  A    between atoms: _184  and  _185
REMARK   83  A    between atoms: _184  and  _187
REMARK   84  A    between atoms: _190  and  _192
REMARK   85  A    between atoms: _192  and  _193
REMARK   86  A    between atoms: _195  and  _197
REMARK   87  A    between atoms: _197  and  _198
REMARK   88  A    between atoms: _197  and  _200
REMARK   89  A    between atoms: _200  and  _201
REMARK   90  A    between atoms: _204  and  _206
REMARK   91  A    between atoms: _206  and  _207
REMARK   92  A    between atoms: _206  and  _209
REMARK   93  A    between atoms: _209  and  _210
REMARK   94  A    between atoms: _212  and  _214
REMARK   95  A    between atoms: _214  and  _215
REMARK   96  A    between atoms: _219  and  _220
REMARK   97  A    between atoms: _225  and  _227
REMARK   98  A    between atoms: _227  and  _228
REMARK   99  A    between atoms: _227  and  _230
REMARK  100  A    between atoms: _230  and  _231
REMARK  101  A    between atoms: _237  and  _239
REMARK  102  A    between atoms: _239  and  _240
REMARK  103  A    between atoms: _239  and  _242
REMARK  104  A    between atoms: _245  and  _247
REMARK  105  A    between atoms: _247  and  _248
REMARK  106  A    between atoms: _251  and  _253
REMARK  107  A    between atoms: _253  and  _254
REMARK  108  A    between atoms: _253  and  _256
REMARK  109  A    between atoms: _259  and  _261
REMARK  110  A    between atoms: _261  and  _262
REMARK  111  A    between atoms: _264  and  _266
REMARK  112  A    between atoms: _266  and  _267
REMARK  113  A    between atoms: _266  and  _269
REMARK  114  A    between atoms: _269  and  _270
REMARK  115  A    between atoms: _276  and  _278
REMARK  116  A    between atoms: _278  and  _279
REMARK  117  A    between atoms: _278  and  _281
REMARK  118  A    between atoms: _281  and  _282
REMARK  119  A    between atoms: _287  and  _289
REMARK  120  A    between atoms: _289  and  _290
REMARK  121  A    between atoms: _289  and  _292
REMARK  122  A    between atoms: _292  and  _293
REMARK  123  A    between atoms: _293  and  _294
REMARK  124  A    between atoms: _294  and  _295
REMARK  125  A    between atoms: _304  and  _306
REMARK  126  A    between atoms: _306  and  _307
REMARK  127  A    between atoms: _306  and  _309
REMARK  128  A    between atoms: _309  and  _310
REMARK  129  A    between atoms: _316  and  _318
REMARK  130  A    between atoms: _318  and  _319
REMARK  131  A    between atoms: _321  and  _323
REMARK  132  A    between atoms: _323  and  _324
REMARK  133  A    between atoms: _323  and  _326
REMARK  134  A    between atoms: _326  and  _327
REMARK  135  A    between atoms: _329  and  _331
REMARK  136  A    between atoms: _331  and  _332
REMARK  137  A    between atoms: _331  and  _334
REMARK  138  A    between atoms: _334  and  _335
REMARK  139  A    between atoms: _337  and  _339
REMARK  140  A    between atoms: _339  and  _340
REMARK  141  A    between atoms: _339  and  _342
REMARK  142  A    between atoms: _342  and  _343
REMARK  143  A    between atoms: _343  and  _344
REMARK  144  A    between atoms: _344  and  _345
REMARK  145  A    between atoms: _354  and  _356
REMARK  146  A    between atoms: _356  and  _357
REMARK  147  A    between atoms: _356  and  _359
REMARK  148  A    between atoms: _359  and  _360
REMARK  149  A    between atoms: _360  and  _361
REMARK  150  A    between atoms: _363  and  _365
REMARK  151  A    between atoms: _365  and  _366
REMARK  152  A    between atoms: _368  and  _370
REMARK  153  A    between atoms: _370  and  _371
REMARK  154  A    between atoms: _373  and  _375
REMARK  155  A    between atoms: _375  and  _376
REMARK  156  A    between atoms: _375  and  _378
REMARK  157  A    between atoms: _378  and  _379
REMARK  158  A    between atoms: _382  and  _384
REMARK  159  A    between atoms: _384  and  _385
REMARK  160  A    between atoms: _384  and  _387
REMARK  161  A    between atoms: _390  and  _392
REMARK  162  A    between atoms: _392  and  _393
REMARK  163  A    between atoms: _392  and  _395
REMARK  164  A    between atoms: _395  and  _396
REMARK  165  A    between atoms: _396  and  _397
REMARK  166  A    between atoms: _400  and  _402
REMARK  167  A    between atoms: _402  and  _403
REMARK  168  A    between atoms: _402  and  _405
REMARK  169  A    between atoms: _405  and  _406
REMARK  170  A    between atoms: _411  and  _413
REMARK  171  A    between atoms: _413  and  _414
REMARK  172  A    between atoms: _413  and  _416
REMARK  173  A    between atoms: _416  and  _417
REMARK  174  A    between atoms: _420  and  _422
REMARK  175  A    between atoms: _422  and  _423
REMARK  176  A    between atoms: _422  and  _425
REMARK  177  A    between atoms: _425  and  _426
REMARK  178  A    between atoms: _426  and  _427
REMARK  179  A    between atoms: _429  and  _431
REMARK  180  A    between atoms: _431  and  _432
REMARK  181  A    between atoms: _431  and  _434
REMARK  182  A    between atoms: _434  and  _435
REMARK  183  A    between atoms: _438  and  _440
REMARK  184  A    between atoms: _440  and  _441
REMARK  185  A    between atoms: _440  and  _443
REMARK  186  A    between atoms: _443  and  _444
REMARK  187  A    between atoms: _444  and  _445
REMARK  188  A    between atoms: _445  and  _446
REMARK  189  A    between atoms: _455  and  _457
REMARK  190  A    between atoms: _457  and  _458
REMARK  191  A    between atoms: _457  and  _460
REMARK  192  A    between atoms: _460  and  _461
REMARK  193  A    between atoms: _463  and  _465
REMARK  194  A    between atoms: _465  and  _466
REMARK  195  A    between atoms: _465  and  _468
REMARK  196  A    between atoms: _468  and  _469
REMARK  197  A    between atoms: _474  and  _476
REMARK  198  A    between atoms: _476  and  _477
REMARK  199  A    between atoms: _476  and  _479
REMARK  200  A    between atoms: _479  and  _480
REMARK  201  A    between atoms: _482  and  _484
REMARK  202  A    between atoms: _484  and  _485
REMARK  203  A    between atoms: _484  and  _487
REMARK  204  A    between atoms: _487  and  _488
REMARK  205  A    between atoms: _488  and  _489
REMARK  206  A    between atoms: _489  and  _490
REMARK  207  A    between atoms: _490  and  _491
REMARK  208  A    between atoms: _495  and  _497
REMARK  209  A    between atoms: _497  and  _498
REMARK  210  A    between atoms: _497  and  _500
REMARK  211  A    between atoms: _500  and  _501
REMARK  212  A    between atoms: _504  and  _506
REMARK  213  A    between atoms: _506  and  _507
REMARK  214  A    between atoms: _506  and  _509
REMARK  215  A    between atoms: _509  and  _510
REMARK  216  A    between atoms: _516  and  _518
REMARK  217  A    between atoms: _518  and  _519
REMARK  218  A    between atoms: _518  and  _521
REMARK  219  A    between atoms: _521  and  _522
REMARK  220  A    between atoms: _522  and  _523
REMARK  221  A    between atoms: _523  and  _524
REMARK                            x       y       z     vdW  Elec       q    Type
REMARK                         _______ _______ _______ _____ _____    ______ ____
ROOT
ATOM      1  NE  ARG A   1      54.603  22.343  14.792  0.00  0.00    -0.265 N 
ATOM      2  HE  ARG A   1      54.975  21.372  14.764  0.00  0.00    +0.259 HD
ATOM      3  CZ  ARG A   1      54.141  22.875  13.670  0.00  0.00    +0.342 C 
ATOM      4  NH2 ARG A   1      53.691  24.125  13.655  0.00  0.00    -0.292 N 
ATOM      5 HH21 ARG A   1      53.700  24.691  14.527  0.00  0.00    +0.255 HD
ATOM      6 HH22 ARG A   1      53.330  24.537  12.771  0.00  0.00    +0.255 HD
ATOM      7  NH1 ARG A   1      54.131  22.166  12.550  0.00  0.00    -0.292 N 
ATOM      8 HH11 ARG A   1      54.487  21.189  12.550  0.00  0.00    +0.255 HD
ATOM      9 HH12 ARG A   1      53.768  22.587  11.671  0.00  0.00    +0.255 HD
ENDROOT
BRANCH   1  10
ATOM     10  CD  ARG A   1      54.614  23.059  16.072  0.00  0.00    +0.174 C 
BRANCH  10  11
ATOM     11  CG  ARG A   1      55.311  22.309  17.174  0.00  0.00    +0.045 C 
BRANCH  11  12
ATOM     12  CB  ARG A   1      56.781  22.148  16.881  0.00  0.00    +0.029 C 
BRANCH  12  13
ATOM     13  CA  ARG A   1      57.507  21.493  18.045  0.00  0.00    +0.133 C 
BRANCH  13  14
ATOM     14  N   ARG A   1      57.752  22.454  19.113  0.00  0.00    -0.239 NA
ATOM     15  H   ARG A   1      57.476  23.450  19.000  0.00  0.00    +0.142 HD
ENDBRANCH  13  14
BRANCH  13  16
ATOM     16  C   ARG A   1      58.781  20.865  17.546  0.00  0.00    +0.224 C 
ATOM     17  O   ARG A   1      59.773  21.558  17.296  0.00  0.00    -0.287 OA
ENDBRANCH  13  16
ENDBRANCH  12  13
ENDBRANCH  11  12
ENDBRANCH  10  11
ENDBRANCH   1  10
TORSDOF 6
REMARK  Name = ../refined-set-2016/4bb9/4bb9_pocket.pdb
REMARK  221 active torsions:
REMARK  status: ('A' for Active; 'I' for Inactive)
REMARK    1  A    between atoms: _1  and  _3
REMARK    2  A    between atoms: _3  and  _4
REMARK    3  A    between atoms: _3  and  _6
REMARK    4  A    between atoms: _6  and  _7
REMARK    5  A    between atoms: _10  and  _12
REMARK    6  A    between atoms: _12  and  _13
REMARK    7  A    between atoms: _12  and  _15
REMARK    8  A    between atoms: _15  and  _16
REMARK    9  A    between atoms: _16  and  _17
REMARK   10  A    between atoms: _20  and  _22
REMARK   11  A    between atoms: _22  and  _23
REMARK   12  A    between atoms: _22  and  _25
REMARK   13  A    between atoms: _25  and  _26
REMARK   14  A    between atoms: _28  and  _30
REMARK   15  A    between atoms: _30  and  _31
REMARK   16  A    between atoms: _33  and  _35
REMARK   17  A    between atoms: _35  and  _36
REMARK   18  A    between atoms: _38  and  _40
REMARK   19  A    between atoms: _40  and  _41
REMARK   20  A    between atoms: _43  and  _45
REMARK   21  A    between atoms: _45  and  _46
REMARK   22  A    between atoms: _45  and  _48
REMARK   23  A    between atoms: _48  and  _49
REMARK   24  A    between atoms: _52  and  _54
REMARK   25  A    between atoms: _54  and  _55
REMARK   26  A    between atoms: _54  and  _57
REMARK   27  A    between atoms: _57  and  _58
REMARK   28  A    between atoms: _60  and  _62
REMARK   29  A    between atoms: _62  and  _63
REMARK   30  A    between atoms: _65  and  _67
REMARK   31  A    between atoms: _67  and  _68
REMARK   32  A    between atoms: _67  and  _70
REMARK   33  A    between atoms: _70  and  _71
REMARK   34  A    between atoms: _71  and  _72
REMARK   35  A    between atoms: _72  and  _73
REMARK   36  A    between atoms: _82  and  _84
REMARK   37  A    between atoms: _84  and  _85
REMARK   38  A    between atoms: _84  and  _87
REMARK   39  A    between atoms: _87  and  _88
REMARK   40  A    between atoms: _88  and  _89
REMARK   41  A    between atoms: _91  and  _93
REMARK   42  A    between atoms: _93  and  _94
REMARK   43  A    between atoms: _97  and  _99
REMARK   44  A    between atoms: _99  and  _100
REMARK   45  A    between atoms: _99  and  _102
REMARK   46  A    between atoms: _102  and  _103
REMARK   47  A    between atoms: _105  and  _107
REMARK   48  A    between atoms: _107  and  _108
REMARK   49  A    between atoms: _107  and  _110
REMARK   50  A    between atoms: _110  and  _111
REMARK   51  A    between atoms: _111  and  _112
REMARK   52  A    between atoms: _112  and  _113
REMARK   53  A    between atoms: _122  and  _124
REMARK   54  A    between atoms: _124  and  _125
REMARK   55  A    between atoms: _124  and  _127
REMARK   56  A    between atoms: _127  and  _128
REMARK   57  A    between atoms: _128  and  _129
REMARK   58  A    between atoms: _132  and  _134
REMARK   59  A    between atoms: _134  and  _135
REMARK   60  A    between atoms: _137  and  _139
REMARK   61  A    between atoms: _139  and  _140
REMARK   62  A    between atoms: _139  and  _142
REMARK   63  A    between atoms: _142  and  _143
REMARK   64  A    between atoms: _146  and  _148
REMARK   65  A    between atoms: _148  and  _149
REMARK   66  A    between atoms: _148  and  _151
REMARK   67  A    between atoms: _151  and  _152
REMARK   68  A    between atoms: _152  and  _153
REMARK   69  A    between atoms: _156  and  _158
REMARK   70  A    between atoms: _158  and  _159
REMARK   71  A    between atoms: _158  and  _161
REMARK   72  A    between atoms: _161  and  _162
REMARK   73  A    between atoms: _165  and  _167
REMARK   74  A    between atoms: _167  and  _168
REMARK   75  A    between atoms: _167  and  _170
REMARK   76  A    between atoms: _170  and  _171
REMARK   77  A    between atoms: _174  and  _176
REMARK   78  A    between atoms: _176  and  _177
REMARK   79  A    between atoms: _176  and  _179
REMARK   80  A    between atoms: _179  and  _180
REMARK   81  A    between atoms: _182  and  _184
REMARK   82  A    between atoms: _184  and  _185
REMARK   83  A    between atoms: _184  and  _187
REMARK   84  A    between atoms: _190  and  _192
REMARK   85  A    between atoms: _192  and  _193
REMARK   86  A    between atoms: _195  and  _197
REMARK   87  A    between atoms: _197  and  _198
REMARK   88  A    between atoms: _197  and  _200
REMARK   89  A    between atoms: _200  and  _201
REMARK   90  A    between atoms: _204  and  _206
REMARK   91  A    between atoms: _206  and  _207
REMARK   92  A    between atoms: _206  and  _209
REMARK   93  A    between atoms: _209  and  _210
REMARK   94  A    between atoms: _212  and  _214
REMARK   95  A    between atoms: _214  and  _215
REMARK   96  A    between atoms: _219  and  _220
REMARK   97  A    between atoms: _225  and  _227
REMARK   98  A    between atoms: _227  and  _228
REMARK   99  A    between atoms: _227  and  _230
REMARK  100  A    between atoms: _230  and  _231
REMARK  101  A    between atoms: _237  and  _239
REMARK  102  A    between atoms: _239  and  _240
REMARK  103  A    between atoms: _239  and  _242
REMARK  104  A    between atoms: _245  and  _247
REMARK  105  A    between atoms: _247  and  _248
REMARK  106  A    between atoms: _251  and  _253
REMARK  107  A    between atoms: _253  and  _254
REMARK  108  A    between atoms: _253  and  _256
REMARK  109  A    between atoms: _259  and  _261
REMARK  110  A    between atoms: _261  and  _262
REMARK  111  A    between atoms: _264  and  _266
REMARK  112  A    between atoms: _266  and  _267
REMARK  113  A    between atoms: _266  and  _269
REMARK  114  A    between atoms: _269  and  _270
REMARK  115  A    between atoms: _276  and  _278
REMARK  116  A    between atoms: _278  and  _279
REMARK  117  A    between atoms: _278  and  _281
REMARK  118  A    between atoms: _281  and  _282
REMARK  119  A    between atoms: _287  and  _289
REMARK  120  A    between atoms: _289  and  _290
REMARK  121  A    between atoms: _289  and  _292
REMARK  122  A    between atoms: _292  and  _293
REMARK  123  A    between atoms: _293  and  _294
REMARK  124  A    between atoms: _294  and  _295
REMARK  125  A    between atoms: _304  and  _306
REMARK  126  A    between atoms: _306  and  _307
REMARK  127  A    between atoms: _306  and  _309
REMARK  128  A    between atoms: _309  and  _310
REMARK  129  A    between atoms: _316  and  _318
REMARK  130  A    between atoms: _318  and  _319
REMARK  131  A    between atoms: _321  and  _323
REMARK  132  A    between atoms: _323  and  _324
REMARK  133  A    between atoms: _323  and  _326
REMARK  134  A    between atoms: _326  and  _327
REMARK  135  A    between atoms: _329  and  _331
REMARK  136  A    between atoms: _331  and  _332
REMARK  137  A    between atoms: _331  and  _334
REMARK  138  A    between atoms: _334  and  _335
REMARK  139  A    between atoms: _337  and  _339
REMARK  140  A    between atoms: _339  and  _340
REMARK  141  A    between atoms: _339  and  _342
REMARK  142  A    between atoms: _342  and  _343
REMARK  143  A    between atoms: _343  and  _344
REMARK  144  A    between atoms: _344  and  _345
REMARK  145  A    between atoms: _354  and  _356
REMARK  146  A    between atoms: _356  and  _357
REMARK  147  A    between atoms: _356  and  _359
REMARK  148  A    between atoms: _359  and  _360
REMARK  149  A    between atoms: _360  and  _361
REMARK  150  A    between atoms: _363  and  _365
REMARK  151  A    between atoms: _365  and  _366
REMARK  152  A    between atoms: _368  and  _370
REMARK  153  A    between atoms: _370  and  _371
REMARK  154  A    between atoms: _373  and  _375
REMARK  155  A    between atoms: _375  and  _376
REMARK  156  A    between atoms: _375  and  _378
REMARK  157  A    between atoms: _378  and  _379
REMARK  158  A    between atoms: _382  and  _384
REMARK  159  A    between atoms: _384  and  _385
REMARK  160  A    between atoms: _384  and  _387
REMARK  161  A    between atoms: _390  and  _392
REMARK  162  A    between atoms: _392  and  _393
REMARK  163  A    between atoms: _392  and  _395
REMARK  164  A    between atoms: _395  and  _396
REMARK  165  A    between atoms: _396  and  _397
REMARK  166  A    between atoms: _400  and  _402
REMARK  167  A    between atoms: _402  and  _403
REMARK  168  A    between atoms: _402  and  _405
REMARK  169  A    between atoms: _405  and  _406
REMARK  170  A    between atoms: _411  and  _413
REMARK  171  A    between atoms: _413  and  _414
REMARK  172  A    between atoms: _413  and  _416
REMARK  173  A    between atoms: _416  and  _417
REMARK  174  A    between atoms: _420  and  _422
REMARK  175  A    between atoms: _422  and  _423
REMARK  176  A    between atoms: _422  and  _425
REMARK  177  A    between atoms: _425  and  _426
REMARK  178  A    between atoms: _426  and  _427
REMARK  179  A    between atoms: _429  and  _431
REMARK  180  A    between atoms: _431  and  _432
REMARK  181  A    between atoms: _431  and  _434
REMARK  182  A    between atoms: _434  and  _435
REMARK  183  A    between atoms: _438  and  _440
REMARK  184  A    between atoms: _440  and  _441
REMARK  185  A    between atoms: _440  and  _443
REMARK  186  A    between atoms: _443  and  _444
REMARK  187  A    between atoms: _444  and  _445
REMARK  188  A    between atoms: _445  and  _446
REMARK  189  A    between atoms: _455  and  _457
REMARK  190  A    between atoms: _457  and  _458
REMARK  191  A    between atoms: _457  and  _460
REMARK  192  A    between atoms: _460  and  _461
REMARK  193  A    between atoms: _463  and  _465
REMARK  194  A    between atoms: _465  and  _466
REMARK  195  A    between atoms: _465  and  _468
REMARK  196  A    between atoms: _468  and  _469
REMARK  197  A    between atoms: _474  and  _476
REMARK  198  A    between atoms: _476  and  _477
REMARK  199  A    between atoms: _476  and  _479
REMARK  200  A    between atoms: _479  and  _480
REMARK  201  A    between atoms: _482  and  _484
REMARK  202  A    between atoms: _484  and  _485
REMARK  203  A    between atoms: _484  and  _487
REMARK  204  A    between atoms: _487  and  _488
REMARK  205  A    between atoms: _488  and  _489
REMARK  206  A    between atoms: _489  and  _490
REMARK  207  A    between atoms: _490  and  _491
REMARK  208  A    between atoms: _495  and  _497
REMARK  209  A    between atoms: _497  and  _498
REMARK  210  A    between atoms: _497  and  _500
REMARK  211  A    between atoms: _500  and  _501
REMARK  212  A    between atoms: _504  and  _506
REMARK  213  A    between atoms: _506  and  _507
REMARK  214  A    between atoms: _506  and  _509
REMARK  215  A    between atoms: _509  and  _510
REMARK  216  A    between atoms: _516  and  _518
REMARK  217  A    between atoms: _518  and  _519
REMARK  218  A    between atoms: _518  and  _521
REMARK  219  A    between atoms: _521  and  _522
REMARK  220  A    between atoms: _522  and  _523
REMARK  221  A    between atoms: _523  and  _524
REMARK                            x       y       z     vdW  Elec       q    Type
REMARK                         _______ _______ _______ _____ _____    ______ ____
ROOT
ATOM      1  CB  PHE A   1      60.228  24.865  16.543  0.00  0.00    +0.051 C 
ENDROOT
BRANCH   1   2
ATOM      2  CG  PHE A   1      60.065  26.291  17.018  0.00  0.00    -0.020 A 
ATOM      3  CD2 PHE A   1      60.499  26.676  18.279  0.00  0.00    -0.004 A 
ATOM      4  CE2 PHE A   1      60.404  28.014  18.692  0.00  0.00    -0.000 A 
ATOM      5  CZ  PHE A   1      59.800  28.950  17.876  0.00  0.00    -0.000 A 
ATOM      6  CE1 PHE A   1      59.358  28.577  16.626  0.00  0.00    -0.000 A 
ATOM      7  CD1 PHE A   1      59.493  27.253  16.196  0.00  0.00    -0.004 A 
ENDBRANCH   1   2
BRANCH   1   8
ATOM      8  CA  PHE A   1      61.699  24.503  16.254  0.00  0.00    +0.137 C 
BRANCH   8   9
ATOM      9  N   PHE A   1      61.794  23.399  15.307  0.00  0.00    -0.239 NA
ATOM     10  H   PHE A   1      60.935  22.959  14.918  0.00  0.00    +0.142 HD
ENDBRANCH   8   9
BRANCH   8  11
ATOM     11  C   PHE A   1      62.411  24.127  17.569  0.00  0.00    +0.224 C 
ATOM     12  O   PHE A   1      63.157  24.944  18.121  0.00  0.00    -0.287 OA
ENDBRANCH   8  11
ENDBRANCH   1   8
TORSDOF 4
REMARK  Name = ../refined-set-2016/4bb9/4bb9_pocket.pdb
REMARK  221 active torsions:
REMARK  status: ('A' for Active; 'I' for Inactive)
REMARK    1  A    between atoms: _1  and  _3
REMARK    2  A    between atoms: _3  and  _4
REMARK    3  A    between atoms: _3  and  _6
REMARK    4  A    between atoms: _6  and  _7
REMARK    5  A    between atoms: _10  and  _12
REMARK    6  A    between atoms: _12  and  _13
REMARK    7  A    between atoms: _12  and  _15
REMARK    8  A    between atoms: _15  and  _16
REMARK    9  A    between atoms: _16  and  _17
REMARK   10  A    between atoms: _20  and  _22
REMARK   11  A    between atoms: _22  and  _23
REMARK   12  A    between atoms: _22  and  _25
REMARK   13  A    between atoms: _25  and  _26
REMARK   14  A    between atoms: _28  and  _30
REMARK   15  A    between atoms: _30  and  _31
REMARK   16  A    between atoms: _33  and  _35
REMARK   17  A    between atoms: _35  and  _36
REMARK   18  A    between atoms: _38  and  _40
REMARK   19  A    between atoms: _40  and  _41
REMARK   20  A    between atoms: _43  and  _45
REMARK   21  A    between atoms: _45  and  _46
REMARK   22  A    between atoms: _45  and  _48
REMARK   23  A    between atoms: _48  and  _49
REMARK   24  A    between atoms: _52  and  _54
REMARK   25  A    between atoms: _54  and  _55
REMARK   26  A    between atoms: _54  and  _57
REMARK   27  A    between atoms: _57  and  _58
REMARK   28  A    between atoms: _60  and  _62
REMARK   29  A    between atoms: _62  and  _63
REMARK   30  A    between atoms: _65  and  _67
REMARK   31  A    between atoms: _67  and  _68
REMARK   32  A    between atoms: _67  and  _70
REMARK   33  A    between atoms: _70  and  _71
REMARK   34  A    between atoms: _71  and  _72
REMARK   35  A    between atoms: _72  and  _73
REMARK   36  A    between atoms: _82  and  _84
REMARK   37  A    between atoms: _84  and  _85
REMARK   38  A    between atoms: _84  and  _87
REMARK   39  A    between atoms: _87  and  _88
REMARK   40  A    between atoms: _88  and  _89
REMARK   41  A    between atoms: _91  and  _93
REMARK   42  A    between atoms: _93  and  _94
REMARK   43  A    between atoms: _97  and  _99
REMARK   44  A    between atoms: _99  and  _100
REMARK   45  A    between atoms: _99  and  _102
REMARK   46  A    between atoms: _102  and  _103
REMARK   47  A    between atoms: _105  and  _107
REMARK   48  A    between atoms: _107  and  _108
REMARK   49  A    between atoms: _107  and  _110
REMARK   50  A    between atoms: _110  and  _111
REMARK   51  A    between atoms: _111  and  _112
REMARK   52  A    between atoms: _112  and  _113
REMARK   53  A    between atoms: _122  and  _124
REMARK   54  A    between atoms: _124  and  _125
REMARK   55  A    between atoms: _124  and  _127
REMARK   56  A    between atoms: _127  and  _128
REMARK   57  A    between atoms: _128  and  _129
REMARK   58  A    between atoms: _132  and  _134
REMARK   59  A    between atoms: _134  and  _135
REMARK   60  A    between atoms: _137  and  _139
REMARK   61  A    between atoms: _139  and  _140
REMARK   62  A    between atoms: _139  and  _142
REMARK   63  A    between atoms: _142  and  _143
REMARK   64  A    between atoms: _146  and  _148
REMARK   65  A    between atoms: _148  and  _149
REMARK   66  A    between atoms: _148  and  _151
REMARK   67  A    between atoms: _151  and  _152
REMARK   68  A    between atoms: _152  and  _153
REMARK   69  A    between atoms: _156  and  _158
REMARK   70  A    between atoms: _158  and  _159
REMARK   71  A    between atoms: _158  and  _161
REMARK   72  A    between atoms: _161  and  _162
REMARK   73  A    between atoms: _165  and  _167
REMARK   74  A    between atoms: _167  and  _168
REMARK   75  A    between atoms: _167  and  _170
REMARK   76  A    between atoms: _170  and  _171
REMARK   77  A    between atoms: _174  and  _176
REMARK   78  A    between atoms: _176  and  _177
REMARK   79  A    between atoms: _176  and  _179
REMARK   80  A    between atoms: _179  and  _180
REMARK   81  A    between atoms: _182  and  _184
REMARK   82  A    between atoms: _184  and  _185
REMARK   83  A    between atoms: _184  and  _187
REMARK   84  A    between atoms: _190  and  _192
REMARK   85  A    between atoms: _192  and  _193
REMARK   86  A    between atoms: _195  and  _197
REMARK   87  A    between atoms: _197  and  _198
REMARK   88  A    between atoms: _197  and  _200
REMARK   89  A    between atoms: _200  and  _201
REMARK   90  A    between atoms: _204  and  _206
REMARK   91  A    between atoms: _206  and  _207
REMARK   92  A    between atoms: _206  and  _209
REMARK   93  A    between atoms: _209  and  _210
REMARK   94  A    between atoms: _212  and  _214
REMARK   95  A    between atoms: _214  and  _215
REMARK   96  A    between atoms: _219  and  _220
REMARK   97  A    between atoms: _225  and  _227
REMARK   98  A    between atoms: _227  and  _228
REMARK   99  A    between atoms: _227  and  _230
REMARK  100  A    between atoms: _230  and  _231
REMARK  101  A    between atoms: _237  and  _239
REMARK  102  A    between atoms: _239  and  _240
REMARK  103  A    between atoms: _239  and  _242
REMARK  104  A    between atoms: _245  and  _247
REMARK  105  A    between atoms: _247  and  _248
REMARK  106  A    between atoms: _251  and  _253
REMARK  107  A    between atoms: _253  and  _254
REMARK  108  A    between atoms: _253  and  _256
REMARK  109  A    between atoms: _259  and  _261
REMARK  110  A    between atoms: _261  and  _262
REMARK  111  A    between atoms: _264  and  _266
REMARK  112  A    between atoms: _266  and  _267
REMARK  113  A    between atoms: _266  and  _269
REMARK  114  A    between atoms: _269  and  _270
REMARK  115  A    between atoms: _276  and  _278
REMARK  116  A    between atoms: _278  and  _279
REMARK  117  A    between atoms: _278  and  _281
REMARK  118  A    between atoms: _281  and  _282
REMARK  119  A    between atoms: _287  and  _289
REMARK  120  A    between atoms: _289  and  _290
REMARK  121  A    between atoms: _289  and  _292
REMARK  122  A    between atoms: _292  and  _293
REMARK  123  A    between atoms: _293  and  _294
REMARK  124  A    between atoms: _294  and  _295
REMARK  125  A    between atoms: _304  and  _306
REMARK  126  A    between atoms: _306  and  _307
REMARK  127  A    between atoms: _306  and  _309
REMARK  128  A    between atoms: _309  and  _310
REMARK  129  A    between atoms: _316  and  _318
REMARK  130  A    between atoms: _318  and  _319
REMARK  131  A    between atoms: _321  and  _323
REMARK  132  A    between atoms: _323  and  _324
REMARK  133  A    between atoms: _323  and  _326
REMARK  134  A    between atoms: _326  and  _327
REMARK  135  A    between atoms: _329  and  _331
REMARK  136  A    between atoms: _331  and  _332
REMARK  137  A    between atoms: _331  and  _334
REMARK  138  A    between atoms: _334  and  _335
REMARK  139  A    between atoms: _337  and  _339
REMARK  140  A    between atoms: _339  and  _340
REMARK  141  A    between atoms: _339  and  _342
REMARK  142  A    between atoms: _342  and  _343
REMARK  143  A    between atoms: _343  and  _344
REMARK  144  A    between atoms: _344  and  _345
REMARK  145  A    between atoms: _354  and  _356
REMARK  146  A    between atoms: _356  and  _357
REMARK  147  A    between atoms: _356  and  _359
REMARK  148  A    between atoms: _359  and  _360
REMARK  149  A    between atoms: _360  and  _361
REMARK  150  A    between atoms: _363  and  _365
REMARK  151  A    between atoms: _365  and  _366
REMARK  152  A    between atoms: _368  and  _370
REMARK  153  A    between atoms: _370  and  _371
REMARK  154  A    between atoms: _373  and  _375
REMARK  155  A    between atoms: _375  and  _376
REMARK  156  A    between atoms: _375  and  _378
REMARK  157  A    between atoms: _378  and  _379
REMARK  158  A    between atoms: _382  and  _384
REMARK  159  A    between atoms: _384  and  _385
REMARK  160  A    between atoms: _384  and  _387
REMARK  161  A    between atoms: _390  and  _392
REMARK  162  A    between atoms: _392  and  _393
REMARK  163  A    between atoms: _392  and  _395
REMARK  164  A    between atoms: _395  and  _396
REMARK  165  A    between atoms: _396  and  _397
REMARK  166  A    between atoms: _400  and  _402
REMARK  167  A    between atoms: _402  and  _403
REMARK  168  A    between atoms: _402  and  _405
REMARK  169  A    between atoms: _405  and  _406
REMARK  170  A    between atoms: _411  and  _413
REMARK  171  A    between atoms: _413  and  _414
REMARK  172  A    between atoms: _413  and  _416
REMARK  173  A    between atoms: _416  and  _417
REMARK  174  A    between atoms: _420  and  _422
REMARK  175  A    between atoms: _422  and  _423
REMARK  176  A    between atoms: _422  and  _425
REMARK  177  A    between atoms: _425  and  _426
REMARK  178  A    between atoms: _426  and  _427
REMARK  179  A    between atoms: _429  and  _431
REMARK  180  A    between atoms: _431  and  _432
REMARK  181  A    between atoms: _431  and  _434
REMARK  182  A    between atoms: _434  and  _435
REMARK  183  A    between atoms: _438  and  _440
REMARK  184  A    between atoms: _440  and  _441
REMARK  185  A    between atoms: _440  and  _443
REMARK  186  A    between atoms: _443  and  _444
REMARK  187  A    between atoms: _444  and  _445
REMARK  188  A    between atoms: _445  and  _446
REMARK  189  A    between atoms: _455  and  _457
REMARK  190  A    between atoms: _457  and  _458
REMARK  191  A    between atoms: _457  and  _460
REMARK  192  A    between atoms: _460  and  _461
REMARK  193  A    between atoms: _463  and  _465
REMARK  194  A    between atoms: _465  and  _466
REMARK  195  A    between atoms: _465  and  _468
REMARK  196  A    between atoms: _468  and  _469
REMARK  197  A    between atoms: _474  and  _476
REMARK  198  A    between atoms: _476  and  _477
REMARK  199  A    between atoms: _476  and  _479
REMARK  200  A    between atoms: _479  and  _480
REMARK  201  A    between atoms: _482  and  _484
REMARK  202  A    between atoms: _484  and  _485
REMARK  203  A    between atoms: _484  and  _487
REMARK  204  A    between atoms: _487  and  _488
REMARK  205  A    between atoms: _488  and  _489
REMARK  206  A    between atoms: _489  and  _490
REMARK  207  A    between atoms: _490  and  _491
REMARK  208  A    between atoms: _495  and  _497
REMARK  209  A    between atoms: _497  and  _498
REMARK  210  A    between atoms: _497  and  _500
REMARK  211  A    between atoms: _500  and  _501
REMARK  212  A    between atoms: _504  and  _506
REMARK  213  A    between atoms: _506  and  _507
REMARK  214  A    between atoms: _506  and  _509
REMARK  215  A    between atoms: _509  and  _510
REMARK  216  A    between atoms: _516  and  _518
REMARK  217  A    between atoms: _518  and  _519
REMARK  218  A    between atoms: _518  and  _521
REMARK  219  A    between atoms: _521  and  _522
REMARK  220  A    between atoms: _522  and  _523
REMARK  221  A    between atoms: _523  and  _524
REMARK                            x       y       z     vdW  Elec       q    Type
REMARK                         _______ _______ _______ _____ _____    ______ ____
ROOT
ATOM      1  CA  ARG A   4      45.228  34.486  21.024  0.00  0.00    +0.149 C 
ENDROOT
BRANCH   1   4
ATOM      2  C   SER A   3      46.598  32.602  21.792  0.00  0.00    +0.243 C 
ATOM      3  O   SER A   3      47.344  33.342  22.443  0.00  0.00    -0.273 OA
ATOM      4  N   ARG A   4      45.552  33.058  21.071  0.00  0.00    -0.297 N 
ATOM      5  H   ARG A   4      44.966  32.384  20.539  0.00  0.00    +0.150 HD
BRANCH   2   6
ATOM      6  CA  SER A   3      46.852  31.104  21.813  0.00  0.00    +0.178 C 
BRANCH   6   9
ATOM      7  C   SER A   2      44.507  30.344  22.125  0.00  0.00    +0.243 C 
ATOM      8  O   SER A   2      44.256  31.138  23.042  0.00  0.00    -0.273 OA
ATOM      9  N   SER A   3      45.678  30.309  21.467  0.00  0.00    -0.295 N 
ATOM     10  H   SER A   3      45.753  29.668  20.651  0.00  0.00    +0.150 HD
BRANCH   7  11
ATOM     11  CA  SER A   2      43.476  29.355  21.632  0.00  0.00    +0.178 C 
BRANCH  11  13
ATOM     12  C   GLY A   1      44.726  27.286  21.342  0.00  0.00    +0.240 C 
ATOM     13  N   SER A   2      43.828  28.003  22.059  0.00  0.00    -0.295 N 
ATOM     14  H   SER A   2      43.391  27.593  22.909  0.00  0.00    +0.150 HD
ATOM     15  O   GLY A   1      45.325  27.748  20.370  0.00  0.00    -0.274 OA
BRANCH  12  16
ATOM     16  CA  GLY A   1      45.052  25.884  21.801  0.00  0.00    +0.169 C 
BRANCH  16  17
ATOM     17  N   GLY A   1      44.249  25.399  22.914  0.00  0.00    -0.236 NA
ATOM     18  H   GLY A   1      44.654  25.411  23.872  0.00  0.00    +0.142 HD
ENDBRANCH  16  17
ENDBRANCH  12  16
ENDBRANCH  11  13
BRANCH  11  19
ATOM     19  CB  SER A   2      42.063  29.714  22.081  0.00  0.00    +0.166 C 
BRANCH  19  20
ATOM     20  OG  SER A   2      41.620  30.878  21.401  0.00  0.00    -0.380 OA
ATOM     21  H   SER A   2      41.620  30.709  20.426  0.00  0.00    +0.211 HD
ENDBRANCH  19  20
ENDBRANCH  11  19
ENDBRANCH   7  11
ENDBRANCH   6   9
BRANCH   6  22
ATOM     22  CB  SER A   3      48.009  30.740  20.889  0.00  0.00    +0.166 C 
BRANCH  22  23
ATOM     23  OG  SER A   3      47.672  30.975  19.529  0.00  0.00    -0.380 OA
ATOM     24  H   SER A   3      47.456  31.933  19.404  0.00  0.00    +0.211 HD
ENDBRANCH  22  23
ENDBRANCH   6  22
ENDBRANCH   2   6
ENDBRANCH   1   4
BRANCH   1  25
ATOM     25  C   ARG A   4      44.810  35.017  22.392  0.00  0.00    +0.241 C 
ATOM     26  N   MET A   5      44.347  34.124  23.289  0.00  0.00    -0.298 N 
ATOM     27  H   MET A   5      44.383  33.112  23.050  0.00  0.00    +0.150 HD
ATOM     28  O   ARG A   4      44.858  36.238  22.600  0.00  0.00    -0.273 OA
BRANCH  26  29
ATOM     29  CA  MET A   5      43.795  34.520  24.586  0.00  0.00    +0.138 C 
BRANCH  29  30
ATOM     30  C   MET A   5      44.888  34.700  25.611  0.00  0.00    +0.227 C 
ATOM     31  O   MET A   5      45.552  35.751  25.572  0.00  0.00    -0.286 OA
ENDBRANCH  29  30
BRANCH  29  32
ATOM     32  CB  MET A   5      42.658  33.578  25.017  0.00  0.00    +0.039 C 
BRANCH  32  33
ATOM     33  CG  MET A   5      41.529  33.566  23.994  0.00  0.00    +0.060 C 
BRANCH  33  34
ATOM     34  SD  MET A   5      39.918  32.998  24.575  0.00  0.00    -0.139 S 
ATOM     35  CE  MET A   5      40.245  31.357  24.831  0.00  0.00    +0.069 C 
ENDBRANCH  33  34
ENDBRANCH  32  33
ENDBRANCH  29  32
ENDBRANCH  26  29
ENDBRANCH   1  25
BRANCH   1  36
ATOM     36  CB  ARG A   4      44.100  34.751  20.013  0.00  0.00    +0.033 C 
BRANCH  36  37
ATOM     37  CG  ARG A   4      42.702  34.326  20.511  0.00  0.00    +0.045 C 
BRANCH  37  38
ATOM     38  CD  ARG A   4      41.698  34.411  19.389  0.00  0.00    +0.174 C 
BRANCH  38  39
ATOM     39  NE  ARG A   4      40.310  34.251  19.817  0.00  0.00    -0.265 N 
ATOM     40  HE  ARG A   4      40.037  33.348  20.256  0.00  0.00    +0.259 HD
ATOM     41  CZ  ARG A   4      39.373  35.185  19.682  0.00  0.00    +0.342 C 
ATOM     42  NH2 ARG A   4      38.121  34.929  20.035  0.00  0.00    -0.292 N 
ATOM     43 HH21 ARG A   4      37.869  33.996  20.419  0.00  0.00    +0.255 HD
ATOM     44 HH22 ARG A   4      37.390  35.661  19.928  0.00  0.00    +0.255 HD
ATOM     45  NH1 ARG A   4      39.682  36.383  19.201  0.00  0.00    -0.292 N 
ATOM     46 HH11 ARG A   4      38.944  37.108  19.098  0.00  0.00    +0.255 HD
ATOM     47 HH12 ARG A   4      40.662  36.596  18.927  0.00  0.00    +0.255 HD
ENDBRANCH  38  39
ENDBRANCH  37  38
ENDBRANCH  36  37
ENDBRANCH   1  36
TORSDOF 21
REMARK  Name = ../refined-set-2016/4bb9/4bb9_pocket.pdb
REMARK  221 active torsions:
REMARK  status: ('A' for Active; 'I' for Inactive)
REMARK    1  A    between atoms: _1  and  _3
REMARK    2  A    between atoms: _3  and  _4
REMARK    3  A    between atoms: _3  and  _6
REMARK    4  A    between atoms: _6  and  _7
REMARK    5  A    between atoms: _10  and  _12
REMARK    6  A    between atoms: _12  and  _13
REMARK    7  A    between atoms: _12  and  _15
REMARK    8  A    between atoms: _15  and  _16
REMARK    9  A    between atoms: _16  and  _17
REMARK   10  A    between atoms: _20  and  _22
REMARK   11  A    between atoms: _22  and  _23
REMARK   12  A    between atoms: _22  and  _25
REMARK   13  A    between atoms: _25  and  _26
REMARK   14  A    between atoms: _28  and  _30
REMARK   15  A    between atoms: _30  and  _31
REMARK   16  A    between atoms: _33  and  _35
REMARK   17  A    between atoms: _35  and  _36
REMARK   18  A    between atoms: _38  and  _40
REMARK   19  A    between atoms: _40  and  _41
REMARK   20  A    between atoms: _43  and  _45
REMARK   21  A    between atoms: _45  and  _46
REMARK   22  A    between atoms: _45  and  _48
REMARK   23  A    between atoms: _48  and  _49
REMARK   24  A    between atoms: _52  and  _54
REMARK   25  A    between atoms: _54  and  _55
REMARK   26  A    between atoms: _54  and  _57
REMARK   27  A    between atoms: _57  and  _58
REMARK   28  A    between atoms: _60  and  _62
REMARK   29  A    between atoms: _62  and  _63
REMARK   30  A    between atoms: _65  and  _67
REMARK   31  A    between atoms: _67  and  _68
REMARK   32  A    between atoms: _67  and  _70
REMARK   33  A    between atoms: _70  and  _71
REMARK   34  A    between atoms: _71  and  _72
REMARK   35  A    between atoms: _72  and  _73
REMARK   36  A    between atoms: _82  and  _84
REMARK   37  A    between atoms: _84  and  _85
REMARK   38  A    between atoms: _84  and  _87
REMARK   39  A    between atoms: _87  and  _88
REMARK   40  A    between atoms: _88  and  _89
REMARK   41  A    between atoms: _91  and  _93
REMARK   42  A    between atoms: _93  and  _94
REMARK   43  A    between atoms: _97  and  _99
REMARK   44  A    between atoms: _99  and  _100
REMARK   45  A    between atoms: _99  and  _102
REMARK   46  A    between atoms: _102  and  _103
REMARK   47  A    between atoms: _105  and  _107
REMARK   48  A    between atoms: _107  and  _108
REMARK   49  A    between atoms: _107  and  _110
REMARK   50  A    between atoms: _110  and  _111
REMARK   51  A    between atoms: _111  and  _112
REMARK   52  A    between atoms: _112  and  _113
REMARK   53  A    between atoms: _122  and  _124
REMARK   54  A    between atoms: _124  and  _125
REMARK   55  A    between atoms: _124  and  _127
REMARK   56  A    between atoms: _127  and  _128
REMARK   57  A    between atoms: _128  and  _129
REMARK   58  A    between atoms: _132  and  _134
REMARK   59  A    between atoms: _134  and  _135
REMARK   60  A    between atoms: _137  and  _139
REMARK   61  A    between atoms: _139  and  _140
REMARK   62  A    between atoms: _139  and  _142
REMARK   63  A    between atoms: _142  and  _143
REMARK   64  A    between atoms: _146  and  _148
REMARK   65  A    between atoms: _148  and  _149
REMARK   66  A    between atoms: _148  and  _151
REMARK   67  A    between atoms: _151  and  _152
REMARK   68  A    between atoms: _152  and  _153
REMARK   69  A    between atoms: _156  and  _158
REMARK   70  A    between atoms: _158  and  _159
REMARK   71  A    between atoms: _158  and  _161
REMARK   72  A    between atoms: _161  and  _162
REMARK   73  A    between atoms: _165  and  _167
REMARK   74  A    between atoms: _167  and  _168
REMARK   75  A    between atoms: _167  and  _170
REMARK   76  A    between atoms: _170  and  _171
REMARK   77  A    between atoms: _174  and  _176
REMARK   78  A    between atoms: _176  and  _177
REMARK   79  A    between atoms: _176  and  _179
REMARK   80  A    between atoms: _179  and  _180
REMARK   81  A    between atoms: _182  and  _184
REMARK   82  A    between atoms: _184  and  _185
REMARK   83  A    between atoms: _184  and  _187
REMARK   84  A    between atoms: _190  and  _192
REMARK   85  A    between atoms: _192  and  _193
REMARK   86  A    between atoms: _195  and  _197
REMARK   87  A    between atoms: _197  and  _198
REMARK   88  A    between atoms: _197  and  _200
REMARK   89  A    between atoms: _200  and  _201
REMARK   90  A    between atoms: _204  and  _206
REMARK   91  A    between atoms: _206  and  _207
REMARK   92  A    between atoms: _206  and  _209
REMARK   93  A    between atoms: _209  and  _210
REMARK   94  A    between atoms: _212  and  _214
REMARK   95  A    between atoms: _214  and  _215
REMARK   96  A    between atoms: _219  and  _220
REMARK   97  A    between atoms: _225  and  _227
REMARK   98  A    between atoms: _227  and  _228
REMARK   99  A    between atoms: _227  and  _230
REMARK  100  A    between atoms: _230  and  _231
REMARK  101  A    between atoms: _237  and  _239
REMARK  102  A    between atoms: _239  and  _240
REMARK  103  A    between atoms: _239  and  _242
REMARK  104  A    between atoms: _245  and  _247
REMARK  105  A    between atoms: _247  and  _248
REMARK  106  A    between atoms: _251  and  _253
REMARK  107  A    between atoms: _253  and  _254
REMARK  108  A    between atoms: _253  and  _256
REMARK  109  A    between atoms: _259  and  _261
REMARK  110  A    between atoms: _261  and  _262
REMARK  111  A    between atoms: _264  and  _266
REMARK  112  A    between atoms: _266  and  _267
REMARK  113  A    between atoms: _266  and  _269
REMARK  114  A    between atoms: _269  and  _270
REMARK  115  A    between atoms: _276  and  _278
REMARK  116  A    between atoms: _278  and  _279
REMARK  117  A    between atoms: _278  and  _281
REMARK  118  A    between atoms: _281  and  _282
REMARK  119  A    between atoms: _287  and  _289
REMARK  120  A    between atoms: _289  and  _290
REMARK  121  A    between atoms: _289  and  _292
REMARK  122  A    between atoms: _292  and  _293
REMARK  123  A    between atoms: _293  and  _294
REMARK  124  A    between atoms: _294  and  _295
REMARK  125  A    between atoms: _304  and  _306
REMARK  126  A    between atoms: _306  and  _307
REMARK  127  A    between atoms: _306  and  _309
REMARK  128  A    between atoms: _309  and  _310
REMARK  129  A    between atoms: _316  and  _318
REMARK  130  A    between atoms: _318  and  _319
REMARK  131  A    between atoms: _321  and  _323
REMARK  132  A    between atoms: _323  and  _324
REMARK  133  A    between atoms: _323  and  _326
REMARK  134  A    between atoms: _326  and  _327
REMARK  135  A    between atoms: _329  and  _331
REMARK  136  A    between atoms: _331  and  _332
REMARK  137  A    between atoms: _331  and  _334
REMARK  138  A    between atoms: _334  and  _335
REMARK  139  A    between atoms: _337  and  _339
REMARK  140  A    between atoms: _339  and  _340
REMARK  141  A    between atoms: _339  and  _342
REMARK  142  A    between atoms: _342  and  _343
REMARK  143  A    between atoms: _343  and  _344
REMARK  144  A    between atoms: _344  and  _345
REMARK  145  A    between atoms: _354  and  _356
REMARK  146  A    between atoms: _356  and  _357
REMARK  147  A    between atoms: _356  and  _359
REMARK  148  A    between atoms: _359  and  _360
REMARK  149  A    between atoms: _360  and  _361
REMARK  150  A    between atoms: _363  and  _365
REMARK  151  A    between atoms: _365  and  _366
REMARK  152  A    between atoms: _368  and  _370
REMARK  153  A    between atoms: _370  and  _371
REMARK  154  A    between atoms: _373  and  _375
REMARK  155  A    between atoms: _375  and  _376
REMARK  156  A    between atoms: _375  and  _378
REMARK  157  A    between atoms: _378  and  _379
REMARK  158  A    between atoms: _382  and  _384
REMARK  159  A    between atoms: _384  and  _385
REMARK  160  A    between atoms: _384  and  _387
REMARK  161  A    between atoms: _390  and  _392
REMARK  162  A    between atoms: _392  and  _393
REMARK  163  A    between atoms: _392  and  _395
REMARK  164  A    between atoms: _395  and  _396
REMARK  165  A    between atoms: _396  and  _397
REMARK  166  A    between atoms: _400  and  _402
REMARK  167  A    between atoms: _402  and  _403
REMARK  168  A    between atoms: _402  and  _405
REMARK  169  A    between atoms: _405  and  _406
REMARK  170  A    between atoms: _411  and  _413
REMARK  171  A    between atoms: _413  and  _414
REMARK  172  A    between atoms: _413  and  _416
REMARK  173  A    between atoms: _416  and  _417
REMARK  174  A    between atoms: _420  and  _422
REMARK  175  A    between atoms: _422  and  _423
REMARK  176  A    between atoms: _422  and  _425
REMARK  177  A    between atoms: _425  and  _426
REMARK  178  A    between atoms: _426  and  _427
REMARK  179  A    between atoms: _429  and  _431
REMARK  180  A    between atoms: _431  and  _432
REMARK  181  A    between atoms: _431  and  _434
REMARK  182  A    between atoms: _434  and  _435
REMARK  183  A    between atoms: _438  and  _440
REMARK  184  A    between atoms: _440  and  _441
REMARK  185  A    between atoms: _440  and  _443
REMARK  186  A    between atoms: _443  and  _444
REMARK  187  A    between atoms: _444  and  _445
REMARK  188  A    between atoms: _445  and  _446
REMARK  189  A    between atoms: _455  and  _457
REMARK  190  A    between atoms: _457  and  _458
REMARK  191  A    between atoms: _457  and  _460
REMARK  192  A    between atoms: _460  and  _461
REMARK  193  A    between atoms: _463  and  _465
REMARK  194  A    between atoms: _465  and  _466
REMARK  195  A    between atoms: _465  and  _468
REMARK  196  A    between atoms: _468  and  _469
REMARK  197  A    between atoms: _474  and  _476
REMARK  198  A    between atoms: _476  and  _477
REMARK  199  A    between atoms: _476  and  _479
REMARK  200  A    between atoms: _479  and  _480
REMARK  201  A    between atoms: _482  and  _484
REMARK  202  A    between atoms: _484  and  _485
REMARK  203  A    between atoms: _484  and  _487
REMARK  204  A    between atoms: _487  and  _488
REMARK  205  A    between atoms: _488  and  _489
REMARK  206  A    between atoms: _489  and  _490
REMARK  207  A    between atoms: _490  and  _491
REMARK  208  A    between atoms: _495  and  _497
REMARK  209  A    between atoms: _497  and  _498
REMARK  210  A    between atoms: _497  and  _500
REMARK  211  A    between atoms: _500  and  _501
REMARK  212  A    between atoms: _504  and  _506
REMARK  213  A    between atoms: _506  and  _507
REMARK  214  A    between atoms: _506  and  _509
REMARK  215  A    between atoms: _509  and  _510
REMARK  216  A    between atoms: _516  and  _518
REMARK  217  A    between atoms: _518  and  _519
REMARK  218  A    between atoms: _518  and  _521
REMARK  219  A    between atoms: _521  and  _522
REMARK  220  A    between atoms: _522  and  _523
REMARK  221  A    between atoms: _523  and  _524
REMARK                            x       y       z     vdW  Elec       q    Type
REMARK                         _______ _______ _______ _____ _____    ______ ____
ROOT
ATOM      1  C   GLY A   1      49.371  34.983  24.677  0.00  0.00    +0.240 C 
ATOM      2  O   GLY A   1      50.432  35.576  24.863  0.00  0.00    -0.274 OA
ATOM      3  N   GLY A   2      48.331  35.530  24.061  0.00  0.00    -0.297 N 
ATOM      4  H   GLY A   2      47.457  34.975  23.966  0.00  0.00    +0.150 HD
ENDROOT
BRANCH   1   5
ATOM      5  CA  GLY A   1      49.186  33.579  25.211  0.00  0.00    +0.169 C 
BRANCH   5   6
ATOM      6  N   GLY A   1      47.897  33.412  25.864  0.00  0.00    -0.236 NA
ATOM      7  H   GLY A   1      47.236  32.687  25.519  0.00  0.00    +0.142 HD
ENDBRANCH   5   6
ENDBRANCH   1   5
BRANCH   3   8
ATOM      8  CA  GLY A   2      48.369  36.883  23.512  0.00  0.00    +0.163 C 
BRANCH   8   9
ATOM      9  C   GLY A   2      48.468  37.920  24.612  0.00  0.00    +0.229 C 
ATOM     10  O   GLY A   2      49.240  38.877  24.501  0.00  0.00    -0.286 OA
ENDBRANCH   8   9
ENDBRANCH   3   8
TORSDOF 4
REMARK  Name = ../refined-set-2016/4bb9/4bb9_pocket.pdb
REMARK  221 active torsions:
REMARK  status: ('A' for Active; 'I' for Inactive)
REMARK    1  A    between atoms: _1  and  _3
REMARK    2  A    between atoms: _3  and  _4
REMARK    3  A    between atoms: _3  and  _6
REMARK    4  A    between atoms: _6  and  _7
REMARK    5  A    between atoms: _10  and  _12
REMARK    6  A    between atoms: _12  and  _13
REMARK    7  A    between atoms: _12  and  _15
REMARK    8  A    between atoms: _15  and  _16
REMARK    9  A    between atoms: _16  and  _17
REMARK   10  A    between atoms: _20  and  _22
REMARK   11  A    between atoms: _22  and  _23
REMARK   12  A    between atoms: _22  and  _25
REMARK   13  A    between atoms: _25  and  _26
REMARK   14  A    between atoms: _28  and  _30
REMARK   15  A    between atoms: _30  and  _31
REMARK   16  A    between atoms: _33  and  _35
REMARK   17  A    between atoms: _35  and  _36
REMARK   18  A    between atoms: _38  and  _40
REMARK   19  A    between atoms: _40  and  _41
REMARK   20  A    between atoms: _43  and  _45
REMARK   21  A    between atoms: _45  and  _46
REMARK   22  A    between atoms: _45  and  _48
REMARK   23  A    between atoms: _48  and  _49
REMARK   24  A    between atoms: _52  and  _54
REMARK   25  A    between atoms: _54  and  _55
REMARK   26  A    between atoms: _54  and  _57
REMARK   27  A    between atoms: _57  and  _58
REMARK   28  A    between atoms: _60  and  _62
REMARK   29  A    between atoms: _62  and  _63
REMARK   30  A    between atoms: _65  and  _67
REMARK   31  A    between atoms: _67  and  _68
REMARK   32  A    between atoms: _67  and  _70
REMARK   33  A    between atoms: _70  and  _71
REMARK   34  A    between atoms: _71  and  _72
REMARK   35  A    between atoms: _72  and  _73
REMARK   36  A    between atoms: _82  and  _84
REMARK   37  A    between atoms: _84  and  _85
REMARK   38  A    between atoms: _84  and  _87
REMARK   39  A    between atoms: _87  and  _88
REMARK   40  A    between atoms: _88  and  _89
REMARK   41  A    between atoms: _91  and  _93
REMARK   42  A    between atoms: _93  and  _94
REMARK   43  A    between atoms: _97  and  _99
REMARK   44  A    between atoms: _99  and  _100
REMARK   45  A    between atoms: _99  and  _102
REMARK   46  A    between atoms: _102  and  _103
REMARK   47  A    between atoms: _105  and  _107
REMARK   48  A    between atoms: _107  and  _108
REMARK   49  A    between atoms: _107  and  _110
REMARK   50  A    between atoms: _110  and  _111
REMARK   51  A    between atoms: _111  and  _112
REMARK   52  A    between atoms: _112  and  _113
REMARK   53  A    between atoms: _122  and  _124
REMARK   54  A    between atoms: _124  and  _125
REMARK   55  A    between atoms: _124  and  _127
REMARK   56  A    between atoms: _127  and  _128
REMARK   57  A    between atoms: _128  and  _129
REMARK   58  A    between atoms: _132  and  _134
REMARK   59  A    between atoms: _134  and  _135
REMARK   60  A    between atoms: _137  and  _139
REMARK   61  A    between atoms: _139  and  _140
REMARK   62  A    between atoms: _139  and  _142
REMARK   63  A    between atoms: _142  and  _143
REMARK   64  A    between atoms: _146  and  _148
REMARK   65  A    between atoms: _148  and  _149
REMARK   66  A    between atoms: _148  and  _151
REMARK   67  A    between atoms: _151  and  _152
REMARK   68  A    between atoms: _152  and  _153
REMARK   69  A    between atoms: _156  and  _158
REMARK   70  A    between atoms: _158  and  _159
REMARK   71  A    between atoms: _158  and  _161
REMARK   72  A    between atoms: _161  and  _162
REMARK   73  A    between atoms: _165  and  _167
REMARK   74  A    between atoms: _167  and  _168
REMARK   75  A    between atoms: _167  and  _170
REMARK   76  A    between atoms: _170  and  _171
REMARK   77  A    between atoms: _174  and  _176
REMARK   78  A    between atoms: _176  and  _177
REMARK   79  A    between atoms: _176  and  _179
REMARK   80  A    between atoms: _179  and  _180
REMARK   81  A    between atoms: _182  and  _184
REMARK   82  A    between atoms: _184  and  _185
REMARK   83  A    between atoms: _184  and  _187
REMARK   84  A    between atoms: _190  and  _192
REMARK   85  A    between atoms: _192  and  _193
REMARK   86  A    between atoms: _195  and  _197
REMARK   87  A    between atoms: _197  and  _198
REMARK   88  A    between atoms: _197  and  _200
REMARK   89  A    between atoms: _200  and  _201
REMARK   90  A    between atoms: _204  and  _206
REMARK   91  A    between atoms: _206  and  _207
REMARK   92  A    between atoms: _206  and  _209
REMARK   93  A    between atoms: _209  and  _210
REMARK   94  A    between atoms: _212  and  _214
REMARK   95  A    between atoms: _214  and  _215
REMARK   96  A    between atoms: _219  and  _220
REMARK   97  A    between atoms: _225  and  _227
REMARK   98  A    between atoms: _227  and  _228
REMARK   99  A    between atoms: _227  and  _230
REMARK  100  A    between atoms: _230  and  _231
REMARK  101  A    between atoms: _237  and  _239
REMARK  102  A    between atoms: _239  and  _240
REMARK  103  A    between atoms: _239  and  _242
REMARK  104  A    between atoms: _245  and  _247
REMARK  105  A    between atoms: _247  and  _248
REMARK  106  A    between atoms: _251  and  _253
REMARK  107  A    between atoms: _253  and  _254
REMARK  108  A    between atoms: _253  and  _256
REMARK  109  A    between atoms: _259  and  _261
REMARK  110  A    between atoms: _261  and  _262
REMARK  111  A    between atoms: _264  and  _266
REMARK  112  A    between atoms: _266  and  _267
REMARK  113  A    between atoms: _266  and  _269
REMARK  114  A    between atoms: _269  and  _270
REMARK  115  A    between atoms: _276  and  _278
REMARK  116  A    between atoms: _278  and  _279
REMARK  117  A    between atoms: _278  and  _281
REMARK  118  A    between atoms: _281  and  _282
REMARK  119  A    between atoms: _287  and  _289
REMARK  120  A    between atoms: _289  and  _290
REMARK  121  A    between atoms: _289  and  _292
REMARK  122  A    between atoms: _292  and  _293
REMARK  123  A    between atoms: _293  and  _294
REMARK  124  A    between atoms: _294  and  _295
REMARK  125  A    between atoms: _304  and  _306
REMARK  126  A    between atoms: _306  and  _307
REMARK  127  A    between atoms: _306  and  _309
REMARK  128  A    between atoms: _309  and  _310
REMARK  129  A    between atoms: _316  and  _318
REMARK  130  A    between atoms: _318  and  _319
REMARK  131  A    between atoms: _321  and  _323
REMARK  132  A    between atoms: _323  and  _324
REMARK  133  A    between atoms: _323  and  _326
REMARK  134  A    between atoms: _326  and  _327
REMARK  135  A    between atoms: _329  and  _331
REMARK  136  A    between atoms: _331  and  _332
REMARK  137  A    between atoms: _331  and  _334
REMARK  138  A    between atoms: _334  and  _335
REMARK  139  A    between atoms: _337  and  _339
REMARK  140  A    between atoms: _339  and  _340
REMARK  141  A    between atoms: _339  and  _342
REMARK  142  A    between atoms: _342  and  _343
REMARK  143  A    between atoms: _343  and  _344
REMARK  144  A    between atoms: _344  and  _345
REMARK  145  A    between atoms: _354  and  _356
REMARK  146  A    between atoms: _356  and  _357
REMARK  147  A    between atoms: _356  and  _359
REMARK  148  A    between atoms: _359  and  _360
REMARK  149  A    between atoms: _360  and  _361
REMARK  150  A    between atoms: _363  and  _365
REMARK  151  A    between atoms: _365  and  _366
REMARK  152  A    between atoms: _368  and  _370
REMARK  153  A    between atoms: _370  and  _371
REMARK  154  A    between atoms: _373  and  _375
REMARK  155  A    between atoms: _375  and  _376
REMARK  156  A    between atoms: _375  and  _378
REMARK  157  A    between atoms: _378  and  _379
REMARK  158  A    between atoms: _382  and  _384
REMARK  159  A    between atoms: _384  and  _385
REMARK  160  A    between atoms: _384  and  _387
REMARK  161  A    between atoms: _390  and  _392
REMARK  162  A    between atoms: _392  and  _393
REMARK  163  A    between atoms: _392  and  _395
REMARK  164  A    between atoms: _395  and  _396
REMARK  165  A    between atoms: _396  and  _397
REMARK  166  A    between atoms: _400  and  _402
REMARK  167  A    between atoms: _402  and  _403
REMARK  168  A    between atoms: _402  and  _405
REMARK  169  A    between atoms: _405  and  _406
REMARK  170  A    between atoms: _411  and  _413
REMARK  171  A    between atoms: _413  and  _414
REMARK  172  A    between atoms: _413  and  _416
REMARK  173  A    between atoms: _416  and  _417
REMARK  174  A    between atoms: _420  and  _422
REMARK  175  A    between atoms: _422  and  _423
REMARK  176  A    between atoms: _422  and  _425
REMARK  177  A    between atoms: _425  and  _426
REMARK  178  A    between atoms: _426  and  _427
REMARK  179  A    between atoms: _429  and  _431
REMARK  180  A    between atoms: _431  and  _432
REMARK  181  A    between atoms: _431  and  _434
REMARK  182  A    between atoms: _434  and  _435
REMARK  183  A    between atoms: _438  and  _440
REMARK  184  A    between atoms: _440  and  _441
REMARK  185  A    between atoms: _440  and  _443
REMARK  186  A    between atoms: _443  and  _444
REMARK  187  A    between atoms: _444  and  _445
REMARK  188  A    between atoms: _445  and  _446
REMARK  189  A    between atoms: _455  and  _457
REMARK  190  A    between atoms: _457  and  _458
REMARK  191  A    between atoms: _457  and  _460
REMARK  192  A    between atoms: _460  and  _461
REMARK  193  A    between atoms: _463  and  _465
REMARK  194  A    between atoms: _465  and  _466
REMARK  195  A    between atoms: _465  and  _468
REMARK  196  A    between atoms: _468  and  _469
REMARK  197  A    between atoms: _474  and  _476
REMARK  198  A    between atoms: _476  and  _477
REMARK  199  A    between atoms: _476  and  _479
REMARK  200  A    between atoms: _479  and  _480
REMARK  201  A    between atoms: _482  and  _484
REMARK  202  A    between atoms: _484  and  _485
REMARK  203  A    between atoms: _484  and  _487
REMARK  204  A    between atoms: _487  and  _488
REMARK  205  A    between atoms: _488  and  _489
REMARK  206  A    between atoms: _489  and  _490
REMARK  207  A    between atoms: _490  and  _491
REMARK  208  A    between atoms: _495  and  _497
REMARK  209  A    between atoms: _497  and  _498
REMARK  210  A    between atoms: _497  and  _500
REMARK  211  A    between atoms: _500  and  _501
REMARK  212  A    between atoms: _504  and  _506
REMARK  213  A    between atoms: _506  and  _507
REMARK  214  A    between atoms: _506  and  _509
REMARK  215  A    between atoms: _509  and  _510
REMARK  216  A    between atoms: _516  and  _518
REMARK  217  A    between atoms: _518  and  _519
REMARK  218  A    between atoms: _518  and  _521
REMARK  219  A    between atoms: _521  and  _522
REMARK  220  A    between atoms: _522  and  _523
REMARK  221  A    between atoms: _523  and  _524
REMARK                            x       y       z     vdW  Elec       q    Type
REMARK                         _______ _______ _______ _____ _____    ______ ____
ROOT
ATOM      1  CA  THR A   1      52.935  38.317  25.236  0.00  0.00    +0.160 C 
ENDROOT
BRANCH   1   2
ATOM      2  N   THR A   1      51.955  37.742  26.163  0.00  0.00    -0.237 NA
ATOM      3  H   THR A   1      51.163  37.183  25.786  0.00  0.00    +0.142 HD
ENDBRANCH   1   2
BRANCH   1   4
ATOM      4  C   THR A   1      52.908  39.842  25.384  0.00  0.00    +0.227 C 
ATOM      5  O   THR A   1      53.961  40.479  25.523  0.00  0.00    -0.287 OA
ENDBRANCH   1   4
BRANCH   1   6
ATOM      6  CB  THR A   1      52.529  37.972  23.797  0.00  0.00    +0.134 C 
ATOM      7  CG2 THR A   1      53.389  38.689  22.754  0.00  0.00    +0.034 C 
BRANCH   6   8
ATOM      8  OG1 THR A   1      52.618  36.563  23.589  0.00  0.00    -0.383 OA
ATOM      9  HG1 THR A   1      52.012  36.099  24.219  0.00  0.00    +0.210 HD
ENDBRANCH   6   8
ENDBRANCH   1   6
TORSDOF 4
REMARK  Name = ../refined-set-2016/4bb9/4bb9_pocket.pdb
REMARK  221 active torsions:
REMARK  status: ('A' for Active; 'I' for Inactive)
REMARK    1  A    between atoms: _1  and  _3
REMARK    2  A    between atoms: _3  and  _4
REMARK    3  A    between atoms: _3  and  _6
REMARK    4  A    between atoms: _6  and  _7
REMARK    5  A    between atoms: _10  and  _12
REMARK    6  A    between atoms: _12  and  _13
REMARK    7  A    between atoms: _12  and  _15
REMARK    8  A    between atoms: _15  and  _16
REMARK    9  A    between atoms: _16  and  _17
REMARK   10  A    between atoms: _20  and  _22
REMARK   11  A    between atoms: _22  and  _23
REMARK   12  A    between atoms: _22  and  _25
REMARK   13  A    between atoms: _25  and  _26
REMARK   14  A    between atoms: _28  and  _30
REMARK   15  A    between atoms: _30  and  _31
REMARK   16  A    between atoms: _33  and  _35
REMARK   17  A    between atoms: _35  and  _36
REMARK   18  A    between atoms: _38  and  _40
REMARK   19  A    between atoms: _40  and  _41
REMARK   20  A    between atoms: _43  and  _45
REMARK   21  A    between atoms: _45  and  _46
REMARK   22  A    between atoms: _45  and  _48
REMARK   23  A    between atoms: _48  and  _49
REMARK   24  A    between atoms: _52  and  _54
REMARK   25  A    between atoms: _54  and  _55
REMARK   26  A    between atoms: _54  and  _57
REMARK   27  A    between atoms: _57  and  _58
REMARK   28  A    between atoms: _60  and  _62
REMARK   29  A    between atoms: _62  and  _63
REMARK   30  A    between atoms: _65  and  _67
REMARK   31  A    between atoms: _67  and  _68
REMARK   32  A    between atoms: _67  and  _70
REMARK   33  A    between atoms: _70  and  _71
REMARK   34  A    between atoms: _71  and  _72
REMARK   35  A    between atoms: _72  and  _73
REMARK   36  A    between atoms: _82  and  _84
REMARK   37  A    between atoms: _84  and  _85
REMARK   38  A    between atoms: _84  and  _87
REMARK   39  A    between atoms: _87  and  _88
REMARK   40  A    between atoms: _88  and  _89
REMARK   41  A    between atoms: _91  and  _93
REMARK   42  A    between atoms: _93  and  _94
REMARK   43  A    between atoms: _97  and  _99
REMARK   44  A    between atoms: _99  and  _100
REMARK   45  A    between atoms: _99  and  _102
REMARK   46  A    between atoms: _102  and  _103
REMARK   47  A    between atoms: _105  and  _107
REMARK   48  A    between atoms: _107  and  _108
REMARK   49  A    between atoms: _107  and  _110
REMARK   50  A    between atoms: _110  and  _111
REMARK   51  A    between atoms: _111  and  _112
REMARK   52  A    between atoms: _112  and  _113
REMARK   53  A    between atoms: _122  and  _124
REMARK   54  A    between atoms: _124  and  _125
REMARK   55  A    between atoms: _124  and  _127
REMARK   56  A    between atoms: _127  and  _128
REMARK   57  A    between atoms: _128  and  _129
REMARK   58  A    between atoms: _132  and  _134
REMARK   59  A    between atoms: _134  and  _135
REMARK   60  A    between atoms: _137  and  _139
REMARK   61  A    between atoms: _139  and  _140
REMARK   62  A    between atoms: _139  and  _142
REMARK   63  A    between atoms: _142  and  _143
REMARK   64  A    between atoms: _146  and  _148
REMARK   65  A    between atoms: _148  and  _149
REMARK   66  A    between atoms: _148  and  _151
REMARK   67  A    between atoms: _151  and  _152
REMARK   68  A    between atoms: _152  and  _153
REMARK   69  A    between atoms: _156  and  _158
REMARK   70  A    between atoms: _158  and  _159
REMARK   71  A    between atoms: _158  and  _161
REMARK   72  A    between atoms: _161  and  _162
REMARK   73  A    between atoms: _165  and  _167
REMARK   74  A    between atoms: _167  and  _168
REMARK   75  A    between atoms: _167  and  _170
REMARK   76  A    between atoms: _170  and  _171
REMARK   77  A    between atoms: _174  and  _176
REMARK   78  A    between atoms: _176  and  _177
REMARK   79  A    between atoms: _176  and  _179
REMARK   80  A    between atoms: _179  and  _180
REMARK   81  A    between atoms: _182  and  _184
REMARK   82  A    between atoms: _184  and  _185
REMARK   83  A    between atoms: _184  and  _187
REMARK   84  A    between atoms: _190  and  _192
REMARK   85  A    between atoms: _192  and  _193
REMARK   86  A    between atoms: _195  and  _197
REMARK   87  A    between atoms: _197  and  _198
REMARK   88  A    between atoms: _197  and  _200
REMARK   89  A    between atoms: _200  and  _201
REMARK   90  A    between atoms: _204  and  _206
REMARK   91  A    between atoms: _206  and  _207
REMARK   92  A    between atoms: _206  and  _209
REMARK   93  A    between atoms: _209  and  _210
REMARK   94  A    between atoms: _212  and  _214
REMARK   95  A    between atoms: _214  and  _215
REMARK   96  A    between atoms: _219  and  _220
REMARK   97  A    between atoms: _225  and  _227
REMARK   98  A    between atoms: _227  and  _228
REMARK   99  A    between atoms: _227  and  _230
REMARK  100  A    between atoms: _230  and  _231
REMARK  101  A    between atoms: _237  and  _239
REMARK  102  A    between atoms: _239  and  _240
REMARK  103  A    between atoms: _239  and  _242
REMARK  104  A    between atoms: _245  and  _247
REMARK  105  A    between atoms: _247  and  _248
REMARK  106  A    between atoms: _251  and  _253
REMARK  107  A    between atoms: _253  and  _254
REMARK  108  A    between atoms: _253  and  _256
REMARK  109  A    between atoms: _259  and  _261
REMARK  110  A    between atoms: _261  and  _262
REMARK  111  A    between atoms: _264  and  _266
REMARK  112  A    between atoms: _266  and  _267
REMARK  113  A    between atoms: _266  and  _269
REMARK  114  A    between atoms: _269  and  _270
REMARK  115  A    between atoms: _276  and  _278
REMARK  116  A    between atoms: _278  and  _279
REMARK  117  A    between atoms: _278  and  _281
REMARK  118  A    between atoms: _281  and  _282
REMARK  119  A    between atoms: _287  and  _289
REMARK  120  A    between atoms: _289  and  _290
REMARK  121  A    between atoms: _289  and  _292
REMARK  122  A    between atoms: _292  and  _293
REMARK  123  A    between atoms: _293  and  _294
REMARK  124  A    between atoms: _294  and  _295
REMARK  125  A    between atoms: _304  and  _306
REMARK  126  A    between atoms: _306  and  _307
REMARK  127  A    between atoms: _306  and  _309
REMARK  128  A    between atoms: _309  and  _310
REMARK  129  A    between atoms: _316  and  _318
REMARK  130  A    between atoms: _318  and  _319
REMARK  131  A    between atoms: _321  and  _323
REMARK  132  A    between atoms: _323  and  _324
REMARK  133  A    between atoms: _323  and  _326
REMARK  134  A    between atoms: _326  and  _327
REMARK  135  A    between atoms: _329  and  _331
REMARK  136  A    between atoms: _331  and  _332
REMARK  137  A    between atoms: _331  and  _334
REMARK  138  A    between atoms: _334  and  _335
REMARK  139  A    between atoms: _337  and  _339
REMARK  140  A    between atoms: _339  and  _340
REMARK  141  A    between atoms: _339  and  _342
REMARK  142  A    between atoms: _342  and  _343
REMARK  143  A    between atoms: _343  and  _344
REMARK  144  A    between atoms: _344  and  _345
REMARK  145  A    between atoms: _354  and  _356
REMARK  146  A    between atoms: _356  and  _357
REMARK  147  A    between atoms: _356  and  _359
REMARK  148  A    between atoms: _359  and  _360
REMARK  149  A    between atoms: _360  and  _361
REMARK  150  A    between atoms: _363  and  _365
REMARK  151  A    between atoms: _365  and  _366
REMARK  152  A    between atoms: _368  and  _370
REMARK  153  A    between atoms: _370  and  _371
REMARK  154  A    between atoms: _373  and  _375
REMARK  155  A    between atoms: _375  and  _376
REMARK  156  A    between atoms: _375  and  _378
REMARK  157  A    between atoms: _378  and  _379
REMARK  158  A    between atoms: _382  and  _384
REMARK  159  A    between atoms: _384  and  _385
REMARK  160  A    between atoms: _384  and  _387
REMARK  161  A    between atoms: _390  and  _392
REMARK  162  A    between atoms: _392  and  _393
REMARK  163  A    between atoms: _392  and  _395
REMARK  164  A    between atoms: _395  and  _396
REMARK  165  A    between atoms: _396  and  _397
REMARK  166  A    between atoms: _400  and  _402
REMARK  167  A    between atoms: _402  and  _403
REMARK  168  A    between atoms: _402  and  _405
REMARK  169  A    between atoms: _405  and  _406
REMARK  170  A    between atoms: _411  and  _413
REMARK  171  A    between atoms: _413  and  _414
REMARK  172  A    between atoms: _413  and  _416
REMARK  173  A    between atoms: _416  and  _417
REMARK  174  A    between atoms: _420  and  _422
REMARK  175  A    between atoms: _422  and  _423
REMARK  176  A    between atoms: _422  and  _425
REMARK  177  A    between atoms: _425  and  _426
REMARK  178  A    between atoms: _426  and  _427
REMARK  179  A    between atoms: _429  and  _431
REMARK  180  A    between atoms: _431  and  _432
REMARK  181  A    between atoms: _431  and  _434
REMARK  182  A    between atoms: _434  and  _435
REMARK  183  A    between atoms: _438  and  _440
REMARK  184  A    between atoms: _440  and  _441
REMARK  185  A    between atoms: _440  and  _443
REMARK  186  A    between atoms: _443  and  _444
REMARK  187  A    between atoms: _444  and  _445
REMARK  188  A    between atoms: _445  and  _446
REMARK  189  A    between atoms: _455  and  _457
REMARK  190  A    between atoms: _457  and  _458
REMARK  191  A    between atoms: _457  and  _460
REMARK  192  A    between atoms: _460  and  _461
REMARK  193  A    between atoms: _463  and  _465
REMARK  194  A    between atoms: _465  and  _466
REMARK  195  A    between atoms: _465  and  _468
REMARK  196  A    between atoms: _468  and  _469
REMARK  197  A    between atoms: _474  and  _476
REMARK  198  A    between atoms: _476  and  _477
REMARK  199  A    between atoms: _476  and  _479
REMARK  200  A    between atoms: _479  and  _480
REMARK  201  A    between atoms: _482  and  _484
REMARK  202  A    between atoms: _484  and  _485
REMARK  203  A    between atoms: _484  and  _487
REMARK  204  A    between atoms: _487  and  _488
REMARK  205  A    between atoms: _488  and  _489
REMARK  206  A    between atoms: _489  and  _490
REMARK  207  A    between atoms: _490  and  _491
REMARK  208  A    between atoms: _495  and  _497
REMARK  209  A    between atoms: _497  and  _498
REMARK  210  A    between atoms: _497  and  _500
REMARK  211  A    between atoms: _500  and  _501
REMARK  212  A    between atoms: _504  and  _506
REMARK  213  A    between atoms: _506  and  _507
REMARK  214  A    between atoms: _506  and  _509
REMARK  215  A    between atoms: _509  and  _510
REMARK  216  A    between atoms: _516  and  _518
REMARK  217  A    between atoms: _518  and  _519
REMARK  218  A    between atoms: _518  and  _521
REMARK  219  A    between atoms: _521  and  _522
REMARK  220  A    between atoms: _522  and  _523
REMARK  221  A    between atoms: _523  and  _524
REMARK                            x       y       z     vdW  Elec       q    Type
REMARK                         _______ _______ _______ _____ _____    ______ ____
ROOT
ATOM      1  C   VAL A   1      40.397  36.495  12.796  0.00  0.00    +0.238 C 
ATOM      2  N   GLU A   2      40.577  36.368  14.104  0.00  0.00    -0.298 N 
ATOM      3  H   GLU A   2      40.548  37.206  14.720  0.00  0.00    +0.150 HD
ATOM      4  O   VAL A   1      40.357  35.516  12.029  0.00  0.00    -0.274 OA
ENDROOT
BRANCH   1   5
ATOM      5  CA  VAL A   1      40.163  37.919  12.265  0.00  0.00    +0.145 C 
BRANCH   5   6
ATOM      6  CB  VAL A   1      41.452  38.616  11.766  0.00  0.00    +0.025 C 
ATOM      7  CG2 VAL A   1      42.457  38.842  12.895  0.00  0.00    +0.002 C 
ATOM      8  CG1 VAL A   1      42.079  37.843  10.622  0.00  0.00    +0.002 C 
ENDBRANCH   5   6
BRANCH   5   9
ATOM      9  N   VAL A   1      39.430  38.805  13.165  0.00  0.00    -0.238 NA
ATOM     10  H   VAL A   1      39.865  39.707  13.447  0.00  0.00    +0.142 HD
ENDBRANCH   5   9
ENDBRANCH   1   5
BRANCH   2  11
ATOM     11  CA  GLU A   2      40.815  35.049  14.673  0.00  0.00    +0.137 C 
BRANCH  11  12
ATOM     12  C   GLU A   2      39.603  34.145  14.684  0.00  0.00    +0.227 C 
ATOM     13  O   GLU A   2      39.742  32.924  14.786  0.00  0.00    -0.286 OA
ENDBRANCH  11  12
BRANCH  11  14
ATOM     14  CB  GLU A   2      41.454  35.152  16.053  0.00  0.00    +0.039 C 
BRANCH  14  15
ATOM     15  CG  GLU A   2      42.911  35.578  16.005  0.00  0.00    +0.116 C 
BRANCH  15  16
ATOM     16  CD  GLU A   2      43.890  34.603  15.368  0.00  0.00    +0.365 C 
ATOM     17  OE2 GLU A   2      45.028  34.522  15.870  0.00  0.00    -0.246 OA
ATOM     18  OE1 GLU A   2      43.570  33.989  14.326  0.00  0.00    -0.246 OA
ENDBRANCH  15  16
ENDBRANCH  14  15
ENDBRANCH  11  14
ENDBRANCH   2  11
TORSDOF 8
REMARK  Name = ../refined-set-2016/4bb9/4bb9_pocket.pdb
REMARK  221 active torsions:
REMARK  status: ('A' for Active; 'I' for Inactive)
REMARK    1  A    between atoms: _1  and  _3
REMARK    2  A    between atoms: _3  and  _4
REMARK    3  A    between atoms: _3  and  _6
REMARK    4  A    between atoms: _6  and  _7
REMARK    5  A    between atoms: _10  and  _12
REMARK    6  A    between atoms: _12  and  _13
REMARK    7  A    between atoms: _12  and  _15
REMARK    8  A    between atoms: _15  and  _16
REMARK    9  A    between atoms: _16  and  _17
REMARK   10  A    between atoms: _20  and  _22
REMARK   11  A    between atoms: _22  and  _23
REMARK   12  A    between atoms: _22  and  _25
REMARK   13  A    between atoms: _25  and  _26
REMARK   14  A    between atoms: _28  and  _30
REMARK   15  A    between atoms: _30  and  _31
REMARK   16  A    between atoms: _33  and  _35
REMARK   17  A    between atoms: _35  and  _36
REMARK   18  A    between atoms: _38  and  _40
REMARK   19  A    between atoms: _40  and  _41
REMARK   20  A    between atoms: _43  and  _45
REMARK   21  A    between atoms: _45  and  _46
REMARK   22  A    between atoms: _45  and  _48
REMARK   23  A    between atoms: _48  and  _49
REMARK   24  A    between atoms: _52  and  _54
REMARK   25  A    between atoms: _54  and  _55
REMARK   26  A    between atoms: _54  and  _57
REMARK   27  A    between atoms: _57  and  _58
REMARK   28  A    between atoms: _60  and  _62
REMARK   29  A    between atoms: _62  and  _63
REMARK   30  A    between atoms: _65  and  _67
REMARK   31  A    between atoms: _67  and  _68
REMARK   32  A    between atoms: _67  and  _70
REMARK   33  A    between atoms: _70  and  _71
REMARK   34  A    between atoms: _71  and  _72
REMARK   35  A    between atoms: _72  and  _73
REMARK   36  A    between atoms: _82  and  _84
REMARK   37  A    between atoms: _84  and  _85
REMARK   38  A    between atoms: _84  and  _87
REMARK   39  A    between atoms: _87  and  _88
REMARK   40  A    between atoms: _88  and  _89
REMARK   41  A    between atoms: _91  and  _93
REMARK   42  A    between atoms: _93  and  _94
REMARK   43  A    between atoms: _97  and  _99
REMARK   44  A    between atoms: _99  and  _100
REMARK   45  A    between atoms: _99  and  _102
REMARK   46  A    between atoms: _102  and  _103
REMARK   47  A    between atoms: _105  and  _107
REMARK   48  A    between atoms: _107  and  _108
REMARK   49  A    between atoms: _107  and  _110
REMARK   50  A    between atoms: _110  and  _111
REMARK   51  A    between atoms: _111  and  _112
REMARK   52  A    between atoms: _112  and  _113
REMARK   53  A    between atoms: _122  and  _124
REMARK   54  A    between atoms: _124  and  _125
REMARK   55  A    between atoms: _124  and  _127
REMARK   56  A    between atoms: _127  and  _128
REMARK   57  A    between atoms: _128  and  _129
REMARK   58  A    between atoms: _132  and  _134
REMARK   59  A    between atoms: _134  and  _135
REMARK   60  A    between atoms: _137  and  _139
REMARK   61  A    between atoms: _139  and  _140
REMARK   62  A    between atoms: _139  and  _142
REMARK   63  A    between atoms: _142  and  _143
REMARK   64  A    between atoms: _146  and  _148
REMARK   65  A    between atoms: _148  and  _149
REMARK   66  A    between atoms: _148  and  _151
REMARK   67  A    between atoms: _151  and  _152
REMARK   68  A    between atoms: _152  and  _153
REMARK   69  A    between atoms: _156  and  _158
REMARK   70  A    between atoms: _158  and  _159
REMARK   71  A    between atoms: _158  and  _161
REMARK   72  A    between atoms: _161  and  _162
REMARK   73  A    between atoms: _165  and  _167
REMARK   74  A    between atoms: _167  and  _168
REMARK   75  A    between atoms: _167  and  _170
REMARK   76  A    between atoms: _170  and  _171
REMARK   77  A    between atoms: _174  and  _176
REMARK   78  A    between atoms: _176  and  _177
REMARK   79  A    between atoms: _176  and  _179
REMARK   80  A    between atoms: _179  and  _180
REMARK   81  A    between atoms: _182  and  _184
REMARK   82  A    between atoms: _184  and  _185
REMARK   83  A    between atoms: _184  and  _187
REMARK   84  A    between atoms: _190  and  _192
REMARK   85  A    between atoms: _192  and  _193
REMARK   86  A    between atoms: _195  and  _197
REMARK   87  A    between atoms: _197  and  _198
REMARK   88  A    between atoms: _197  and  _200
REMARK   89  A    between atoms: _200  and  _201
REMARK   90  A    between atoms: _204  and  _206
REMARK   91  A    between atoms: _206  and  _207
REMARK   92  A    between atoms: _206  and  _209
REMARK   93  A    between atoms: _209  and  _210
REMARK   94  A    between atoms: _212  and  _214
REMARK   95  A    between atoms: _214  and  _215
REMARK   96  A    between atoms: _219  and  _220
REMARK   97  A    between atoms: _225  and  _227
REMARK   98  A    between atoms: _227  and  _228
REMARK   99  A    between atoms: _227  and  _230
REMARK  100  A    between atoms: _230  and  _231
REMARK  101  A    between atoms: _237  and  _239
REMARK  102  A    between atoms: _239  and  _240
REMARK  103  A    between atoms: _239  and  _242
REMARK  104  A    between atoms: _245  and  _247
REMARK  105  A    between atoms: _247  and  _248
REMARK  106  A    between atoms: _251  and  _253
REMARK  107  A    between atoms: _253  and  _254
REMARK  108  A    between atoms: _253  and  _256
REMARK  109  A    between atoms: _259  and  _261
REMARK  110  A    between atoms: _261  and  _262
REMARK  111  A    between atoms: _264  and  _266
REMARK  112  A    between atoms: _266  and  _267
REMARK  113  A    between atoms: _266  and  _269
REMARK  114  A    between atoms: _269  and  _270
REMARK  115  A    between atoms: _276  and  _278
REMARK  116  A    between atoms: _278  and  _279
REMARK  117  A    between atoms: _278  and  _281
REMARK  118  A    between atoms: _281  and  _282
REMARK  119  A    between atoms: _287  and  _289
REMARK  120  A    between atoms: _289  and  _290
REMARK  121  A    between atoms: _289  and  _292
REMARK  122  A    between atoms: _292  and  _293
REMARK  123  A    between atoms: _293  and  _294
REMARK  124  A    between atoms: _294  and  _295
REMARK  125  A    between atoms: _304  and  _306
REMARK  126  A    between atoms: _306  and  _307
REMARK  127  A    between atoms: _306  and  _309
REMARK  128  A    between atoms: _309  and  _310
REMARK  129  A    between atoms: _316  and  _318
REMARK  130  A    between atoms: _318  and  _319
REMARK  131  A    between atoms: _321  and  _323
REMARK  132  A    between atoms: _323  and  _324
REMARK  133  A    between atoms: _323  and  _326
REMARK  134  A    between atoms: _326  and  _327
REMARK  135  A    between atoms: _329  and  _331
REMARK  136  A    between atoms: _331  and  _332
REMARK  137  A    between atoms: _331  and  _334
REMARK  138  A    between atoms: _334  and  _335
REMARK  139  A    between atoms: _337  and  _339
REMARK  140  A    between atoms: _339  and  _340
REMARK  141  A    between atoms: _339  and  _342
REMARK  142  A    between atoms: _342  and  _343
REMARK  143  A    between atoms: _343  and  _344
REMARK  144  A    between atoms: _344  and  _345
REMARK  145  A    between atoms: _354  and  _356
REMARK  146  A    between atoms: _356  and  _357
REMARK  147  A    between atoms: _356  and  _359
REMARK  148  A    between atoms: _359  and  _360
REMARK  149  A    between atoms: _360  and  _361
REMARK  150  A    between atoms: _363  and  _365
REMARK  151  A    between atoms: _365  and  _366
REMARK  152  A    between atoms: _368  and  _370
REMARK  153  A    between atoms: _370  and  _371
REMARK  154  A    between atoms: _373  and  _375
REMARK  155  A    between atoms: _375  and  _376
REMARK  156  A    between atoms: _375  and  _378
REMARK  157  A    between atoms: _378  and  _379
REMARK  158  A    between atoms: _382  and  _384
REMARK  159  A    between atoms: _384  and  _385
REMARK  160  A    between atoms: _384  and  _387
REMARK  161  A    between atoms: _390  and  _392
REMARK  162  A    between atoms: _392  and  _393
REMARK  163  A    between atoms: _392  and  _395
REMARK  164  A    between atoms: _395  and  _396
REMARK  165  A    between atoms: _396  and  _397
REMARK  166  A    between atoms: _400  and  _402
REMARK  167  A    between atoms: _402  and  _403
REMARK  168  A    between atoms: _402  and  _405
REMARK  169  A    between atoms: _405  and  _406
REMARK  170  A    between atoms: _411  and  _413
REMARK  171  A    between atoms: _413  and  _414
REMARK  172  A    between atoms: _413  and  _416
REMARK  173  A    between atoms: _416  and  _417
REMARK  174  A    between atoms: _420  and  _422
REMARK  175  A    between atoms: _422  and  _423
REMARK  176  A    between atoms: _422  and  _425
REMARK  177  A    between atoms: _425  and  _426
REMARK  178  A    between atoms: _426  and  _427
REMARK  179  A    between atoms: _429  and  _431
REMARK  180  A    between atoms: _431  and  _432
REMARK  181  A    between atoms: _431  and  _434
REMARK  182  A    between atoms: _434  and  _435
REMARK  183  A    between atoms: _438  and  _440
REMARK  184  A    between atoms: _440  and  _441
REMARK  185  A    between atoms: _440  and  _443
REMARK  186  A    between atoms: _443  and  _444
REMARK  187  A    between atoms: _444  and  _445
REMARK  188  A    between atoms: _445  and  _446
REMARK  189  A    between atoms: _455  and  _457
REMARK  190  A    between atoms: _457  and  _458
REMARK  191  A    between atoms: _457  and  _460
REMARK  192  A    between atoms: _460  and  _461
REMARK  193  A    between atoms: _463  and  _465
REMARK  194  A    between atoms: _465  and  _466
REMARK  195  A    between atoms: _465  and  _468
REMARK  196  A    between atoms: _468  and  _469
REMARK  197  A    between atoms: _474  and  _476
REMARK  198  A    between atoms: _476  and  _477
REMARK  199  A    between atoms: _476  and  _479
REMARK  200  A    between atoms: _479  and  _480
REMARK  201  A    between atoms: _482  and  _484
REMARK  202  A    between atoms: _484  and  _485
REMARK  203  A    between atoms: _484  and  _487
REMARK  204  A    between atoms: _487  and  _488
REMARK  205  A    between atoms: _488  and  _489
REMARK  206  A    between atoms: _489  and  _490
REMARK  207  A    between atoms: _490  and  _491
REMARK  208  A    between atoms: _495  and  _497
REMARK  209  A    between atoms: _497  and  _498
REMARK  210  A    between atoms: _497  and  _500
REMARK  211  A    between atoms: _500  and  _501
REMARK  212  A    between atoms: _504  and  _506
REMARK  213  A    between atoms: _506  and  _507
REMARK  214  A    between atoms: _506  and  _509
REMARK  215  A    between atoms: _509  and  _510
REMARK  216  A    between atoms: _516  and  _518
REMARK  217  A    between atoms: _518  and  _519
REMARK  218  A    between atoms: _518  and  _521
REMARK  219  A    between atoms: _521  and  _522
REMARK  220  A    between atoms: _522  and  _523
REMARK  221  A    between atoms: _523  and  _524
REMARK                            x       y       z     vdW  Elec       q    Type
REMARK                         _______ _______ _______ _____ _____    ______ ____
ROOT
ATOM      1  C   HIS A   1      39.583  29.119  13.061  0.00  0.00    +0.239 C 
ATOM      2  N   THR A   2      39.336  29.904  14.127  0.00  0.00    -0.296 N 
ATOM      3  H   THR A   2      39.398  30.939  14.046  0.00  0.00    +0.150 HD
ATOM      4  O   HIS A   1      39.501  27.892  13.105  0.00  0.00    -0.274 OA
ENDROOT
BRANCH   1   5
ATOM      5  CA  HIS A   1      40.102  29.789  11.805  0.00  0.00    +0.151 C 
BRANCH   5   6
ATOM      6  N   HIS A   1      39.580  31.128  11.616  0.00  0.00    -0.238 NA
ATOM      7  H   HIS A   1      40.155  31.960  11.857  0.00  0.00    +0.142 HD
ENDBRANCH   5   6
BRANCH   5   8
ATOM      8  CB  HIS A   1      41.657  29.788  11.789  0.00  0.00    +0.074 C 
BRANCH   8   9
ATOM      9  CG  HIS A   1      42.289  29.957  13.148  0.00  0.00    +0.082 A 
ATOM     10  CD2 HIS A   1      42.620  29.020  14.072  0.00  0.00    +0.115 A 
ATOM     11  NE2 HIS A   1      43.118  29.699  15.166  0.00  0.00    -0.221 NA
ATOM     12  CE1 HIS A   1      43.044  30.999  14.890  0.00  0.00    +0.199 A 
ATOM     13  ND1 HIS A   1      42.523  31.212  13.687  0.00  0.00    -0.227 NA
ENDBRANCH   8   9
ENDBRANCH   5   8
ENDBRANCH   1   5
BRANCH   2  14
ATOM     14  CA  THR A   2      38.980  29.280  15.400  0.00  0.00    +0.164 C 
BRANCH  14  15
ATOM     15  CB  THR A   2      39.025  30.326  16.531  0.00  0.00    +0.136 C 
ATOM     16  CG2 THR A   2      38.762  29.700  17.907  0.00  0.00    +0.034 C 
BRANCH  15  17
ATOM     17  OG1 THR A   2      40.306  30.951  16.535  0.00  0.00    -0.382 OA
ATOM     18  HG1 THR A   2      40.458  31.395  15.663  0.00  0.00    +0.210 HD
ENDBRANCH  15  17
ENDBRANCH  14  15
BRANCH  14  19
ATOM     19  C   THR A   2      37.630  28.594  15.365  0.00  0.00    +0.229 C 
ATOM     20  O   THR A   2      37.473  27.513  15.960  0.00  0.00    -0.286 OA
ENDBRANCH  14  19
ENDBRANCH   2  14
TORSDOF 8
REMARK  Name = ../refined-set-2016/4bb9/4bb9_pocket.pdb
REMARK  221 active torsions:
REMARK  status: ('A' for Active; 'I' for Inactive)
REMARK    1  A    between atoms: _1  and  _3
REMARK    2  A    between atoms: _3  and  _4
REMARK    3  A    between atoms: _3  and  _6
REMARK    4  A    between atoms: _6  and  _7
REMARK    5  A    between atoms: _10  and  _12
REMARK    6  A    between atoms: _12  and  _13
REMARK    7  A    between atoms: _12  and  _15
REMARK    8  A    between atoms: _15  and  _16
REMARK    9  A    between atoms: _16  and  _17
REMARK   10  A    between atoms: _20  and  _22
REMARK   11  A    between atoms: _22  and  _23
REMARK   12  A    between atoms: _22  and  _25
REMARK   13  A    between atoms: _25  and  _26
REMARK   14  A    between atoms: _28  and  _30
REMARK   15  A    between atoms: _30  and  _31
REMARK   16  A    between atoms: _33  and  _35
REMARK   17  A    between atoms: _35  and  _36
REMARK   18  A    between atoms: _38  and  _40
REMARK   19  A    between atoms: _40  and  _41
REMARK   20  A    between atoms: _43  and  _45
REMARK   21  A    between atoms: _45  and  _46
REMARK   22  A    between atoms: _45  and  _48
REMARK   23  A    between atoms: _48  and  _49
REMARK   24  A    between atoms: _52  and  _54
REMARK   25  A    between atoms: _54  and  _55
REMARK   26  A    between atoms: _54  and  _57
REMARK   27  A    between atoms: _57  and  _58
REMARK   28  A    between atoms: _60  and  _62
REMARK   29  A    between atoms: _62  and  _63
REMARK   30  A    between atoms: _65  and  _67
REMARK   31  A    between atoms: _67  and  _68
REMARK   32  A    between atoms: _67  and  _70
REMARK   33  A    between atoms: _70  and  _71
REMARK   34  A    between atoms: _71  and  _72
REMARK   35  A    between atoms: _72  and  _73
REMARK   36  A    between atoms: _82  and  _84
REMARK   37  A    between atoms: _84  and  _85
REMARK   38  A    between atoms: _84  and  _87
REMARK   39  A    between atoms: _87  and  _88
REMARK   40  A    between atoms: _88  and  _89
REMARK   41  A    between atoms: _91  and  _93
REMARK   42  A    between atoms: _93  and  _94
REMARK   43  A    between atoms: _97  and  _99
REMARK   44  A    between atoms: _99  and  _100
REMARK   45  A    between atoms: _99  and  _102
REMARK   46  A    between atoms: _102  and  _103
REMARK   47  A    between atoms: _105  and  _107
REMARK   48  A    between atoms: _107  and  _108
REMARK   49  A    between atoms: _107  and  _110
REMARK   50  A    between atoms: _110  and  _111
REMARK   51  A    between atoms: _111  and  _112
REMARK   52  A    between atoms: _112  and  _113
REMARK   53  A    between atoms: _122  and  _124
REMARK   54  A    between atoms: _124  and  _125
REMARK   55  A    between atoms: _124  and  _127
REMARK   56  A    between atoms: _127  and  _128
REMARK   57  A    between atoms: _128  and  _129
REMARK   58  A    between atoms: _132  and  _134
REMARK   59  A    between atoms: _134  and  _135
REMARK   60  A    between atoms: _137  and  _139
REMARK   61  A    between atoms: _139  and  _140
REMARK   62  A    between atoms: _139  and  _142
REMARK   63  A    between atoms: _142  and  _143
REMARK   64  A    between atoms: _146  and  _148
REMARK   65  A    between atoms: _148  and  _149
REMARK   66  A    between atoms: _148  and  _151
REMARK   67  A    between atoms: _151  and  _152
REMARK   68  A    between atoms: _152  and  _153
REMARK   69  A    between atoms: _156  and  _158
REMARK   70  A    between atoms: _158  and  _159
REMARK   71  A    between atoms: _158  and  _161
REMARK   72  A    between atoms: _161  and  _162
REMARK   73  A    between atoms: _165  and  _167
REMARK   74  A    between atoms: _167  and  _168
REMARK   75  A    between atoms: _167  and  _170
REMARK   76  A    between atoms: _170  and  _171
REMARK   77  A    between atoms: _174  and  _176
REMARK   78  A    between atoms: _176  and  _177
REMARK   79  A    between atoms: _176  and  _179
REMARK   80  A    between atoms: _179  and  _180
REMARK   81  A    between atoms: _182  and  _184
REMARK   82  A    between atoms: _184  and  _185
REMARK   83  A    between atoms: _184  and  _187
REMARK   84  A    between atoms: _190  and  _192
REMARK   85  A    between atoms: _192  and  _193
REMARK   86  A    between atoms: _195  and  _197
REMARK   87  A    between atoms: _197  and  _198
REMARK   88  A    between atoms: _197  and  _200
REMARK   89  A    between atoms: _200  and  _201
REMARK   90  A    between atoms: _204  and  _206
REMARK   91  A    between atoms: _206  and  _207
REMARK   92  A    between atoms: _206  and  _209
REMARK   93  A    between atoms: _209  and  _210
REMARK   94  A    between atoms: _212  and  _214
REMARK   95  A    between atoms: _214  and  _215
REMARK   96  A    between atoms: _219  and  _220
REMARK   97  A    between atoms: _225  and  _227
REMARK   98  A    between atoms: _227  and  _228
REMARK   99  A    between atoms: _227  and  _230
REMARK  100  A    between atoms: _230  and  _231
REMARK  101  A    between atoms: _237  and  _239
REMARK  102  A    between atoms: _239  and  _240
REMARK  103  A    between atoms: _239  and  _242
REMARK  104  A    between atoms: _245  and  _247
REMARK  105  A    between atoms: _247  and  _248
REMARK  106  A    between atoms: _251  and  _253
REMARK  107  A    between atoms: _253  and  _254
REMARK  108  A    between atoms: _253  and  _256
REMARK  109  A    between atoms: _259  and  _261
REMARK  110  A    between atoms: _261  and  _262
REMARK  111  A    between atoms: _264  and  _266
REMARK  112  A    between atoms: _266  and  _267
REMARK  113  A    between atoms: _266  and  _269
REMARK  114  A    between atoms: _269  and  _270
REMARK  115  A    between atoms: _276  and  _278
REMARK  116  A    between atoms: _278  and  _279
REMARK  117  A    between atoms: _278  and  _281
REMARK  118  A    between atoms: _281  and  _282
REMARK  119  A    between atoms: _287  and  _289
REMARK  120  A    between atoms: _289  and  _290
REMARK  121  A    between atoms: _289  and  _292
REMARK  122  A    between atoms: _292  and  _293
REMARK  123  A    between atoms: _293  and  _294
REMARK  124  A    between atoms: _294  and  _295
REMARK  125  A    between atoms: _304  and  _306
REMARK  126  A    between atoms: _306  and  _307
REMARK  127  A    between atoms: _306  and  _309
REMARK  128  A    between atoms: _309  and  _310
REMARK  129  A    between atoms: _316  and  _318
REMARK  130  A    between atoms: _318  and  _319
REMARK  131  A    between atoms: _321  and  _323
REMARK  132  A    between atoms: _323  and  _324
REMARK  133  A    between atoms: _323  and  _326
REMARK  134  A    between atoms: _326  and  _327
REMARK  135  A    between atoms: _329  and  _331
REMARK  136  A    between atoms: _331  and  _332
REMARK  137  A    between atoms: _331  and  _334
REMARK  138  A    between atoms: _334  and  _335
REMARK  139  A    between atoms: _337  and  _339
REMARK  140  A    between atoms: _339  and  _340
REMARK  141  A    between atoms: _339  and  _342
REMARK  142  A    between atoms: _342  and  _343
REMARK  143  A    between atoms: _343  and  _344
REMARK  144  A    between atoms: _344  and  _345
REMARK  145  A    between atoms: _354  and  _356
REMARK  146  A    between atoms: _356  and  _357
REMARK  147  A    between atoms: _356  and  _359
REMARK  148  A    between atoms: _359  and  _360
REMARK  149  A    between atoms: _360  and  _361
REMARK  150  A    between atoms: _363  and  _365
REMARK  151  A    between atoms: _365  and  _366
REMARK  152  A    between atoms: _368  and  _370
REMARK  153  A    between atoms: _370  and  _371
REMARK  154  A    between atoms: _373  and  _375
REMARK  155  A    between atoms: _375  and  _376
REMARK  156  A    between atoms: _375  and  _378
REMARK  157  A    between atoms: _378  and  _379
REMARK  158  A    between atoms: _382  and  _384
REMARK  159  A    between atoms: _384  and  _385
REMARK  160  A    between atoms: _384  and  _387
REMARK  161  A    between atoms: _390  and  _392
REMARK  162  A    between atoms: _392  and  _393
REMARK  163  A    between atoms: _392  and  _395
REMARK  164  A    between atoms: _395  and  _396
REMARK  165  A    between atoms: _396  and  _397
REMARK  166  A    between atoms: _400  and  _402
REMARK  167  A    between atoms: _402  and  _403
REMARK  168  A    between atoms: _402  and  _405
REMARK  169  A    between atoms: _405  and  _406
REMARK  170  A    between atoms: _411  and  _413
REMARK  171  A    between atoms: _413  and  _414
REMARK  172  A    between atoms: _413  and  _416
REMARK  173  A    between atoms: _416  and  _417
REMARK  174  A    between atoms: _420  and  _422
REMARK  175  A    between atoms: _422  and  _423
REMARK  176  A    between atoms: _422  and  _425
REMARK  177  A    between atoms: _425  and  _426
REMARK  178  A    between atoms: _426  and  _427
REMARK  179  A    between atoms: _429  and  _431
REMARK  180  A    between atoms: _431  and  _432
REMARK  181  A    between atoms: _431  and  _434
REMARK  182  A    between atoms: _434  and  _435
REMARK  183  A    between atoms: _438  and  _440
REMARK  184  A    between atoms: _440  and  _441
REMARK  185  A    between atoms: _440  and  _443
REMARK  186  A    between atoms: _443  and  _444
REMARK  187  A    between atoms: _444  and  _445
REMARK  188  A    between atoms: _445  and  _446
REMARK  189  A    between atoms: _455  and  _457
REMARK  190  A    between atoms: _457  and  _458
REMARK  191  A    between atoms: _457  and  _460
REMARK  192  A    between atoms: _460  and  _461
REMARK  193  A    between atoms: _463  and  _465
REMARK  194  A    between atoms: _465  and  _466
REMARK  195  A    between atoms: _465  and  _468
REMARK  196  A    between atoms: _468  and  _469
REMARK  197  A    between atoms: _474  and  _476
REMARK  198  A    between atoms: _476  and  _477
REMARK  199  A    between atoms: _476  and  _479
REMARK  200  A    between atoms: _479  and  _480
REMARK  201  A    between atoms: _482  and  _484
REMARK  202  A    between atoms: _484  and  _485
REMARK  203  A    between atoms: _484  and  _487
REMARK  204  A    between atoms: _487  and  _488
REMARK  205  A    between atoms: _488  and  _489
REMARK  206  A    between atoms: _489  and  _490
REMARK  207  A    between atoms: _490  and  _491
REMARK  208  A    between atoms: _495  and  _497
REMARK  209  A    between atoms: _497  and  _498
REMARK  210  A    between atoms: _497  and  _500
REMARK  211  A    between atoms: _500  and  _501
REMARK  212  A    between atoms: _504  and  _506
REMARK  213  A    between atoms: _506  and  _507
REMARK  214  A    between atoms: _506  and  _509
REMARK  215  A    between atoms: _509  and  _510
REMARK  216  A    between atoms: _516  and  _518
REMARK  217  A    between atoms: _518  and  _519
REMARK  218  A    between atoms: _518  and  _521
REMARK  219  A    between atoms: _521  and  _522
REMARK  220  A    between atoms: _522  and  _523
REMARK  221  A    between atoms: _523  and  _524
REMARK                            x       y       z     vdW  Elec       q    Type
REMARK                         _______ _______ _______ _____ _____    ______ ____
ROOT
ATOM      1  CA  MET A   1      37.893  23.775  18.590  0.00  0.00    +0.134 C 
ENDROOT
BRANCH   1   2
ATOM      2  N   MET A   1      38.330  23.042  19.776  0.00  0.00    -0.239 NA
ATOM      3  H   MET A   1      39.351  22.892  19.905  0.00  0.00    +0.142 HD
ENDBRANCH   1   2
BRANCH   1   4
ATOM      4  C   MET A   1      37.390  22.827  17.516  0.00  0.00    +0.224 C 
ATOM      5  O   MET A   1      38.038  22.651  16.480  0.00  0.00    -0.287 OA
ENDBRANCH   1   4
BRANCH   1   6
ATOM      6  CB  MET A   1      39.049  24.618  18.031  0.00  0.00    +0.037 C 
BRANCH   6   7
ATOM      7  CG  MET A   1      39.504  25.718  18.926  0.00  0.00    +0.059 C 
BRANCH   7   8
ATOM      8  SD  MET A   1      40.894  26.527  18.103  0.00  0.00    -0.139 S 
ATOM      9  CE  MET A   1      41.457  27.499  19.403  0.00  0.00    +0.069 C 
ENDBRANCH   7   8
ENDBRANCH   6   7
ENDBRANCH   1   6
TORSDOF 5
REMARK  Name = ../refined-set-2016/4bb9/4bb9_pocket.pdb
REMARK  221 active torsions:
REMARK  status: ('A' for Active; 'I' for Inactive)
REMARK    1  A    between atoms: _1  and  _3
REMARK    2  A    between atoms: _3  and  _4
REMARK    3  A    between atoms: _3  and  _6
REMARK    4  A    between atoms: _6  and  _7
REMARK    5  A    between atoms: _10  and  _12
REMARK    6  A    between atoms: _12  and  _13
REMARK    7  A    between atoms: _12  and  _15
REMARK    8  A    between atoms: _15  and  _16
REMARK    9  A    between atoms: _16  and  _17
REMARK   10  A    between atoms: _20  and  _22
REMARK   11  A    between atoms: _22  and  _23
REMARK   12  A    between atoms: _22  and  _25
REMARK   13  A    between atoms: _25  and  _26
REMARK   14  A    between atoms: _28  and  _30
REMARK   15  A    between atoms: _30  and  _31
REMARK   16  A    between atoms: _33  and  _35
REMARK   17  A    between atoms: _35  and  _36
REMARK   18  A    between atoms: _38  and  _40
REMARK   19  A    between atoms: _40  and  _41
REMARK   20  A    between atoms: _43  and  _45
REMARK   21  A    between atoms: _45  and  _46
REMARK   22  A    between atoms: _45  and  _48
REMARK   23  A    between atoms: _48  and  _49
REMARK   24  A    between atoms: _52  and  _54
REMARK   25  A    between atoms: _54  and  _55
REMARK   26  A    between atoms: _54  and  _57
REMARK   27  A    between atoms: _57  and  _58
REMARK   28  A    between atoms: _60  and  _62
REMARK   29  A    between atoms: _62  and  _63
REMARK   30  A    between atoms: _65  and  _67
REMARK   31  A    between atoms: _67  and  _68
REMARK   32  A    between atoms: _67  and  _70
REMARK   33  A    between atoms: _70  and  _71
REMARK   34  A    between atoms: _71  and  _72
REMARK   35  A    between atoms: _72  and  _73
REMARK   36  A    between atoms: _82  and  _84
REMARK   37  A    between atoms: _84  and  _85
REMARK   38  A    between atoms: _84  and  _87
REMARK   39  A    between atoms: _87  and  _88
REMARK   40  A    between atoms: _88  and  _89
REMARK   41  A    between atoms: _91  and  _93
REMARK   42  A    between atoms: _93  and  _94
REMARK   43  A    between atoms: _97  and  _99
REMARK   44  A    between atoms: _99  and  _100
REMARK   45  A    between atoms: _99  and  _102
REMARK   46  A    between atoms: _102  and  _103
REMARK   47  A    between atoms: _105  and  _107
REMARK   48  A    between atoms: _107  and  _108
REMARK   49  A    between atoms: _107  and  _110
REMARK   50  A    between atoms: _110  and  _111
REMARK   51  A    between atoms: _111  and  _112
REMARK   52  A    between atoms: _112  and  _113
REMARK   53  A    between atoms: _122  and  _124
REMARK   54  A    between atoms: _124  and  _125
REMARK   55  A    between atoms: _124  and  _127
REMARK   56  A    between atoms: _127  and  _128
REMARK   57  A    between atoms: _128  and  _129
REMARK   58  A    between atoms: _132  and  _134
REMARK   59  A    between atoms: _134  and  _135
REMARK   60  A    between atoms: _137  and  _139
REMARK   61  A    between atoms: _139  and  _140
REMARK   62  A    between atoms: _139  and  _142
REMARK   63  A    between atoms: _142  and  _143
REMARK   64  A    between atoms: _146  and  _148
REMARK   65  A    between atoms: _148  and  _149
REMARK   66  A    between atoms: _148  and  _151
REMARK   67  A    between atoms: _151  and  _152
REMARK   68  A    between atoms: _152  and  _153
REMARK   69  A    between atoms: _156  and  _158
REMARK   70  A    between atoms: _158  and  _159
REMARK   71  A    between atoms: _158  and  _161
REMARK   72  A    between atoms: _161  and  _162
REMARK   73  A    between atoms: _165  and  _167
REMARK   74  A    between atoms: _167  and  _168
REMARK   75  A    between atoms: _167  and  _170
REMARK   76  A    between atoms: _170  and  _171
REMARK   77  A    between atoms: _174  and  _176
REMARK   78  A    between atoms: _176  and  _177
REMARK   79  A    between atoms: _176  and  _179
REMARK   80  A    between atoms: _179  and  _180
REMARK   81  A    between atoms: _182  and  _184
REMARK   82  A    between atoms: _184  and  _185
REMARK   83  A    between atoms: _184  and  _187
REMARK   84  A    between atoms: _190  and  _192
REMARK   85  A    between atoms: _192  and  _193
REMARK   86  A    between atoms: _195  and  _197
REMARK   87  A    between atoms: _197  and  _198
REMARK   88  A    between atoms: _197  and  _200
REMARK   89  A    between atoms: _200  and  _201
REMARK   90  A    between atoms: _204  and  _206
REMARK   91  A    between atoms: _206  and  _207
REMARK   92  A    between atoms: _206  and  _209
REMARK   93  A    between atoms: _209  and  _210
REMARK   94  A    between atoms: _212  and  _214
REMARK   95  A    between atoms: _214  and  _215
REMARK   96  A    between atoms: _219  and  _220
REMARK   97  A    between atoms: _225  and  _227
REMARK   98  A    between atoms: _227  and  _228
REMARK   99  A    between atoms: _227  and  _230
REMARK  100  A    between atoms: _230  and  _231
REMARK  101  A    between atoms: _237  and  _239
REMARK  102  A    between atoms: _239  and  _240
REMARK  103  A    between atoms: _239  and  _242
REMARK  104  A    between atoms: _245  and  _247
REMARK  105  A    between atoms: _247  and  _248
REMARK  106  A    between atoms: _251  and  _253
REMARK  107  A    between atoms: _253  and  _254
REMARK  108  A    between atoms: _253  and  _256
REMARK  109  A    between atoms: _259  and  _261
REMARK  110  A    between atoms: _261  and  _262
REMARK  111  A    between atoms: _264  and  _266
REMARK  112  A    between atoms: _266  and  _267
REMARK  113  A    between atoms: _266  and  _269
REMARK  114  A    between atoms: _269  and  _270
REMARK  115  A    between atoms: _276  and  _278
REMARK  116  A    between atoms: _278  and  _279
REMARK  117  A    between atoms: _278  and  _281
REMARK  118  A    between atoms: _281  and  _282
REMARK  119  A    between atoms: _287  and  _289
REMARK  120  A    between atoms: _289  and  _290
REMARK  121  A    between atoms: _289  and  _292
REMARK  122  A    between atoms: _292  and  _293
REMARK  123  A    between atoms: _293  and  _294
REMARK  124  A    between atoms: _294  and  _295
REMARK  125  A    between atoms: _304  and  _306
REMARK  126  A    between atoms: _306  and  _307
REMARK  127  A    between atoms: _306  and  _309
REMARK  128  A    between atoms: _309  and  _310
REMARK  129  A    between atoms: _316  and  _318
REMARK  130  A    between atoms: _318  and  _319
REMARK  131  A    between atoms: _321  and  _323
REMARK  132  A    between atoms: _323  and  _324
REMARK  133  A    between atoms: _323  and  _326
REMARK  134  A    between atoms: _326  and  _327
REMARK  135  A    between atoms: _329  and  _331
REMARK  136  A    between atoms: _331  and  _332
REMARK  137  A    between atoms: _331  and  _334
REMARK  138  A    between atoms: _334  and  _335
REMARK  139  A    between atoms: _337  and  _339
REMARK  140  A    between atoms: _339  and  _340
REMARK  141  A    between atoms: _339  and  _342
REMARK  142  A    between atoms: _342  and  _343
REMARK  143  A    between atoms: _343  and  _344
REMARK  144  A    between atoms: _344  and  _345
REMARK  145  A    between atoms: _354  and  _356
REMARK  146  A    between atoms: _356  and  _357
REMARK  147  A    between atoms: _356  and  _359
REMARK  148  A    between atoms: _359  and  _360
REMARK  149  A    between atoms: _360  and  _361
REMARK  150  A    between atoms: _363  and  _365
REMARK  151  A    between atoms: _365  and  _366
REMARK  152  A    between atoms: _368  and  _370
REMARK  153  A    between atoms: _370  and  _371
REMARK  154  A    between atoms: _373  and  _375
REMARK  155  A    between atoms: _375  and  _376
REMARK  156  A    between atoms: _375  and  _378
REMARK  157  A    between atoms: _378  and  _379
REMARK  158  A    between atoms: _382  and  _384
REMARK  159  A    between atoms: _384  and  _385
REMARK  160  A    between atoms: _384  and  _387
REMARK  161  A    between atoms: _390  and  _392
REMARK  162  A    between atoms: _392  and  _393
REMARK  163  A    between atoms: _392  and  _395
REMARK  164  A    between atoms: _395  and  _396
REMARK  165  A    between atoms: _396  and  _397
REMARK  166  A    between atoms: _400  and  _402
REMARK  167  A    between atoms: _402  and  _403
REMARK  168  A    between atoms: _402  and  _405
REMARK  169  A    between atoms: _405  and  _406
REMARK  170  A    between atoms: _411  and  _413
REMARK  171  A    between atoms: _413  and  _414
REMARK  172  A    between atoms: _413  and  _416
REMARK  173  A    between atoms: _416  and  _417
REMARK  174  A    between atoms: _420  and  _422
REMARK  175  A    between atoms: _422  and  _423
REMARK  176  A    between atoms: _422  and  _425
REMARK  177  A    between atoms: _425  and  _426
REMARK  178  A    between atoms: _426  and  _427
REMARK  179  A    between atoms: _429  and  _431
REMARK  180  A    between atoms: _431  and  _432
REMARK  181  A    between atoms: _431  and  _434
REMARK  182  A    between atoms: _434  and  _435
REMARK  183  A    between atoms: _438  and  _440
REMARK  184  A    between atoms: _440  and  _441
REMARK  185  A    between atoms: _440  and  _443
REMARK  186  A    between atoms: _443  and  _444
REMARK  187  A    between atoms: _444  and  _445
REMARK  188  A    between atoms: _445  and  _446
REMARK  189  A    between atoms: _455  and  _457
REMARK  190  A    between atoms: _457  and  _458
REMARK  191  A    between atoms: _457  and  _460
REMARK  192  A    between atoms: _460  and  _461
REMARK  193  A    between atoms: _463  and  _465
REMARK  194  A    between atoms: _465  and  _466
REMARK  195  A    between atoms: _465  and  _468
REMARK  196  A    between atoms: _468  and  _469
REMARK  197  A    between atoms: _474  and  _476
REMARK  198  A    between atoms: _476  and  _477
REMARK  199  A    between atoms: _476  and  _479
REMARK  200  A    between atoms: _479  and  _480
REMARK  201  A    between atoms: _482  and  _484
REMARK  202  A    between atoms: _484  and  _485
REMARK  203  A    between atoms: _484  and  _487
REMARK  204  A    between atoms: _487  and  _488
REMARK  205  A    between atoms: _488  and  _489
REMARK  206  A    between atoms: _489  and  _490
REMARK  207  A    between atoms: _490  and  _491
REMARK  208  A    between atoms: _495  and  _497
REMARK  209  A    between atoms: _497  and  _498
REMARK  210  A    between atoms: _497  and  _500
REMARK  211  A    between atoms: _500  and  _501
REMARK  212  A    between atoms: _504  and  _506
REMARK  213  A    between atoms: _506  and  _507
REMARK  214  A    between atoms: _506  and  _509
REMARK  215  A    between atoms: _509  and  _510
REMARK  216  A    between atoms: _516  and  _518
REMARK  217  A    between atoms: _518  and  _519
REMARK  218  A    between atoms: _518  and  _521
REMARK  219  A    between atoms: _521  and  _522
REMARK  220  A    between atoms: _522  and  _523
REMARK  221  A    between atoms: _523  and  _524
REMARK                            x       y       z     vdW  Elec       q    Type
REMARK                         _______ _______ _______ _____ _____    ______ ____
ROOT
ATOM      1  CA  ARG A   2      39.841  25.628   9.841  0.00  0.00    +0.137 C 
ENDROOT
BRANCH   1   3
ATOM      2  C   LEU A   1      38.723  24.671  11.810  0.00  0.00    +0.238 C 
ATOM      3  N   ARG A   2      39.389  25.688  11.232  0.00  0.00    -0.298 N 
ATOM      4  H   ARG A   2      39.588  26.542  11.791  0.00  0.00    +0.150 HD
ATOM      5  O   LEU A   1      38.256  23.704  11.176  0.00  0.00    -0.274 OA
BRANCH   2   6
ATOM      6  CA  LEU A   1      38.578  24.732  13.335  0.00  0.00    +0.145 C 
BRANCH   6   7
ATOM      7  N   LEU A   1      37.327  24.193  13.812  0.00  0.00    -0.238 NA
ATOM      8  H   LEU A   1      37.365  23.470  14.558  0.00  0.00    +0.142 HD
ENDBRANCH   6   7
BRANCH   6   9
ATOM      9  CB  LEU A   1      39.694  23.844  13.988  0.00  0.00    +0.026 C 
BRANCH   9  10
ATOM     10  CG  LEU A   1      41.145  24.103  13.691  0.00  0.00    +0.002 C 
ATOM     11  CD2 LEU A   1      42.018  23.027  14.345  0.00  0.00    +0.000 C 
ATOM     12  CD1 LEU A   1      41.550  25.474  14.205  0.00  0.00    +0.000 C 
ENDBRANCH   9  10
ENDBRANCH   6   9
ENDBRANCH   2   6
ENDBRANCH   1   3
BRANCH   1  13
ATOM     13  C   ARG A   2      41.326  25.286   9.934  0.00  0.00    +0.227 C 
ATOM     14  O   ARG A   2      42.060  25.925  10.695  0.00  0.00    -0.286 OA
ENDBRANCH   1  13
BRANCH   1  15
ATOM     15  CB  ARG A   2      39.705  26.942   9.083  0.00  0.00    +0.031 C 
BRANCH  15  16
ATOM     16  CG  ARG A   2      38.299  27.497   8.987  0.00  0.00    +0.045 C 
BRANCH  16  17
ATOM     17  CD  ARG A   2      38.352  28.750   8.137  0.00  0.00    +0.174 C 
BRANCH  17  18
ATOM     18  NE  ARG A   2      37.056  29.406   7.963  0.00  0.00    -0.265 N 
ATOM     19  HE  ARG A   2      36.782  30.136   8.651  0.00  0.00    +0.259 HD
ATOM     20  CZ  ARG A   2      36.206  29.126   6.978  0.00  0.00    +0.342 C 
ATOM     21  NH2 ARG A   2      35.085  29.823   6.845  0.00  0.00    -0.292 N 
ATOM     22 HH21 ARG A   2      34.868  30.591   7.512  0.00  0.00    +0.255 HD
ATOM     23 HH22 ARG A   2      34.423  29.601   6.074  0.00  0.00    +0.255 HD
ATOM     24  NH1 ARG A   2      36.470  28.140   6.121  0.00  0.00    -0.292 N 
ATOM     25 HH11 ARG A   2      37.344  27.585   6.220  0.00  0.00    +0.255 HD
ATOM     26 HH12 ARG A   2      35.802  27.926   5.353  0.00  0.00    +0.255 HD
ENDBRANCH  17  18
ENDBRANCH  16  17
ENDBRANCH  15  16
ENDBRANCH   1  15
TORSDOF 10
REMARK  Name = ../refined-set-2016/4bb9/4bb9_pocket.pdb
REMARK  221 active torsions:
REMARK  status: ('A' for Active; 'I' for Inactive)
REMARK    1  A    between atoms: _1  and  _3
REMARK    2  A    between atoms: _3  and  _4
REMARK    3  A    between atoms: _3  and  _6
REMARK    4  A    between atoms: _6  and  _7
REMARK    5  A    between atoms: _10  and  _12
REMARK    6  A    between atoms: _12  and  _13
REMARK    7  A    between atoms: _12  and  _15
REMARK    8  A    between atoms: _15  and  _16
REMARK    9  A    between atoms: _16  and  _17
REMARK   10  A    between atoms: _20  and  _22
REMARK   11  A    between atoms: _22  and  _23
REMARK   12  A    between atoms: _22  and  _25
REMARK   13  A    between atoms: _25  and  _26
REMARK   14  A    between atoms: _28  and  _30
REMARK   15  A    between atoms: _30  and  _31
REMARK   16  A    between atoms: _33  and  _35
REMARK   17  A    between atoms: _35  and  _36
REMARK   18  A    between atoms: _38  and  _40
REMARK   19  A    between atoms: _40  and  _41
REMARK   20  A    between atoms: _43  and  _45
REMARK   21  A    between atoms: _45  and  _46
REMARK   22  A    between atoms: _45  and  _48
REMARK   23  A    between atoms: _48  and  _49
REMARK   24  A    between atoms: _52  and  _54
REMARK   25  A    between atoms: _54  and  _55
REMARK   26  A    between atoms: _54  and  _57
REMARK   27  A    between atoms: _57  and  _58
REMARK   28  A    between atoms: _60  and  _62
REMARK   29  A    between atoms: _62  and  _63
REMARK   30  A    between atoms: _65  and  _67
REMARK   31  A    between atoms: _67  and  _68
REMARK   32  A    between atoms: _67  and  _70
REMARK   33  A    between atoms: _70  and  _71
REMARK   34  A    between atoms: _71  and  _72
REMARK   35  A    between atoms: _72  and  _73
REMARK   36  A    between atoms: _82  and  _84
REMARK   37  A    between atoms: _84  and  _85
REMARK   38  A    between atoms: _84  and  _87
REMARK   39  A    between atoms: _87  and  _88
REMARK   40  A    between atoms: _88  and  _89
REMARK   41  A    between atoms: _91  and  _93
REMARK   42  A    between atoms: _93  and  _94
REMARK   43  A    between atoms: _97  and  _99
REMARK   44  A    between atoms: _99  and  _100
REMARK   45  A    between atoms: _99  and  _102
REMARK   46  A    between atoms: _102  and  _103
REMARK   47  A    between atoms: _105  and  _107
REMARK   48  A    between atoms: _107  and  _108
REMARK   49  A    between atoms: _107  and  _110
REMARK   50  A    between atoms: _110  and  _111
REMARK   51  A    between atoms: _111  and  _112
REMARK   52  A    between atoms: _112  and  _113
REMARK   53  A    between atoms: _122  and  _124
REMARK   54  A    between atoms: _124  and  _125
REMARK   55  A    between atoms: _124  and  _127
REMARK   56  A    between atoms: _127  and  _128
REMARK   57  A    between atoms: _128  and  _129
REMARK   58  A    between atoms: _132  and  _134
REMARK   59  A    between atoms: _134  and  _135
REMARK   60  A    between atoms: _137  and  _139
REMARK   61  A    between atoms: _139  and  _140
REMARK   62  A    between atoms: _139  and  _142
REMARK   63  A    between atoms: _142  and  _143
REMARK   64  A    between atoms: _146  and  _148
REMARK   65  A    between atoms: _148  and  _149
REMARK   66  A    between atoms: _148  and  _151
REMARK   67  A    between atoms: _151  and  _152
REMARK   68  A    between atoms: _152  and  _153
REMARK   69  A    between atoms: _156  and  _158
REMARK   70  A    between atoms: _158  and  _159
REMARK   71  A    between atoms: _158  and  _161
REMARK   72  A    between atoms: _161  and  _162
REMARK   73  A    between atoms: _165  and  _167
REMARK   74  A    between atoms: _167  and  _168
REMARK   75  A    between atoms: _167  and  _170
REMARK   76  A    between atoms: _170  and  _171
REMARK   77  A    between atoms: _174  and  _176
REMARK   78  A    between atoms: _176  and  _177
REMARK   79  A    between atoms: _176  and  _179
REMARK   80  A    between atoms: _179  and  _180
REMARK   81  A    between atoms: _182  and  _184
REMARK   82  A    between atoms: _184  and  _185
REMARK   83  A    between atoms: _184  and  _187
REMARK   84  A    between atoms: _190  and  _192
REMARK   85  A    between atoms: _192  and  _193
REMARK   86  A    between atoms: _195  and  _197
REMARK   87  A    between atoms: _197  and  _198
REMARK   88  A    between atoms: _197  and  _200
REMARK   89  A    between atoms: _200  and  _201
REMARK   90  A    between atoms: _204  and  _206
REMARK   91  A    between atoms: _206  and  _207
REMARK   92  A    between atoms: _206  and  _209
REMARK   93  A    between atoms: _209  and  _210
REMARK   94  A    between atoms: _212  and  _214
REMARK   95  A    between atoms: _214  and  _215
REMARK   96  A    between atoms: _219  and  _220
REMARK   97  A    between atoms: _225  and  _227
REMARK   98  A    between atoms: _227  and  _228
REMARK   99  A    between atoms: _227  and  _230
REMARK  100  A    between atoms: _230  and  _231
REMARK  101  A    between atoms: _237  and  _239
REMARK  102  A    between atoms: _239  and  _240
REMARK  103  A    between atoms: _239  and  _242
REMARK  104  A    between atoms: _245  and  _247
REMARK  105  A    between atoms: _247  and  _248
REMARK  106  A    between atoms: _251  and  _253
REMARK  107  A    between atoms: _253  and  _254
REMARK  108  A    between atoms: _253  and  _256
REMARK  109  A    between atoms: _259  and  _261
REMARK  110  A    between atoms: _261  and  _262
REMARK  111  A    between atoms: _264  and  _266
REMARK  112  A    between atoms: _266  and  _267
REMARK  113  A    between atoms: _266  and  _269
REMARK  114  A    between atoms: _269  and  _270
REMARK  115  A    between atoms: _276  and  _278
REMARK  116  A    between atoms: _278  and  _279
REMARK  117  A    between atoms: _278  and  _281
REMARK  118  A    between atoms: _281  and  _282
REMARK  119  A    between atoms: _287  and  _289
REMARK  120  A    between atoms: _289  and  _290
REMARK  121  A    between atoms: _289  and  _292
REMARK  122  A    between atoms: _292  and  _293
REMARK  123  A    between atoms: _293  and  _294
REMARK  124  A    between atoms: _294  and  _295
REMARK  125  A    between atoms: _304  and  _306
REMARK  126  A    between atoms: _306  and  _307
REMARK  127  A    between atoms: _306  and  _309
REMARK  128  A    between atoms: _309  and  _310
REMARK  129  A    between atoms: _316  and  _318
REMARK  130  A    between atoms: _318  and  _319
REMARK  131  A    between atoms: _321  and  _323
REMARK  132  A    between atoms: _323  and  _324
REMARK  133  A    between atoms: _323  and  _326
REMARK  134  A    between atoms: _326  and  _327
REMARK  135  A    between atoms: _329  and  _331
REMARK  136  A    between atoms: _331  and  _332
REMARK  137  A    between atoms: _331  and  _334
REMARK  138  A    between atoms: _334  and  _335
REMARK  139  A    between atoms: _337  and  _339
REMARK  140  A    between atoms: _339  and  _340
REMARK  141  A    between atoms: _339  and  _342
REMARK  142  A    between atoms: _342  and  _343
REMARK  143  A    between atoms: _343  and  _344
REMARK  144  A    between atoms: _344  and  _345
REMARK  145  A    between atoms: _354  and  _356
REMARK  146  A    between atoms: _356  and  _357
REMARK  147  A    between atoms: _356  and  _359
REMARK  148  A    between atoms: _359  and  _360
REMARK  149  A    between atoms: _360  and  _361
REMARK  150  A    between atoms: _363  and  _365
REMARK  151  A    between atoms: _365  and  _366
REMARK  152  A    between atoms: _368  and  _370
REMARK  153  A    between atoms: _370  and  _371
REMARK  154  A    between atoms: _373  and  _375
REMARK  155  A    between atoms: _375  and  _376
REMARK  156  A    between atoms: _375  and  _378
REMARK  157  A    between atoms: _378  and  _379
REMARK  158  A    between atoms: _382  and  _384
REMARK  159  A    between atoms: _384  and  _385
REMARK  160  A    between atoms: _384  and  _387
REMARK  161  A    between atoms: _390  and  _392
REMARK  162  A    between atoms: _392  and  _393
REMARK  163  A    between atoms: _392  and  _395
REMARK  164  A    between atoms: _395  and  _396
REMARK  165  A    between atoms: _396  and  _397
REMARK  166  A    between atoms: _400  and  _402
REMARK  167  A    between atoms: _402  and  _403
REMARK  168  A    between atoms: _402  and  _405
REMARK  169  A    between atoms: _405  and  _406
REMARK  170  A    between atoms: _411  and  _413
REMARK  171  A    between atoms: _413  and  _414
REMARK  172  A    between atoms: _413  and  _416
REMARK  173  A    between atoms: _416  and  _417
REMARK  174  A    between atoms: _420  and  _422
REMARK  175  A    between atoms: _422  and  _423
REMARK  176  A    between atoms: _422  and  _425
REMARK  177  A    between atoms: _425  and  _426
REMARK  178  A    between atoms: _426  and  _427
REMARK  179  A    between atoms: _429  and  _431
REMARK  180  A    between atoms: _431  and  _432
REMARK  181  A    between atoms: _431  and  _434
REMARK  182  A    between atoms: _434  and  _435
REMARK  183  A    between atoms: _438  and  _440
REMARK  184  A    between atoms: _440  and  _441
REMARK  185  A    between atoms: _440  and  _443
REMARK  186  A    between atoms: _443  and  _444
REMARK  187  A    between atoms: _444  and  _445
REMARK  188  A    between atoms: _445  and  _446
REMARK  189  A    between atoms: _455  and  _457
REMARK  190  A    between atoms: _457  and  _458
REMARK  191  A    between atoms: _457  and  _460
REMARK  192  A    between atoms: _460  and  _461
REMARK  193  A    between atoms: _463  and  _465
REMARK  194  A    between atoms: _465  and  _466
REMARK  195  A    between atoms: _465  and  _468
REMARK  196  A    between atoms: _468  and  _469
REMARK  197  A    between atoms: _474  and  _476
REMARK  198  A    between atoms: _476  and  _477
REMARK  199  A    between atoms: _476  and  _479
REMARK  200  A    between atoms: _479  and  _480
REMARK  201  A    between atoms: _482  and  _484
REMARK  202  A    between atoms: _484  and  _485
REMARK  203  A    between atoms: _484  and  _487
REMARK  204  A    between atoms: _487  and  _488
REMARK  205  A    between atoms: _488  and  _489
REMARK  206  A    between atoms: _489  and  _490
REMARK  207  A    between atoms: _490  and  _491
REMARK  208  A    between atoms: _495  and  _497
REMARK  209  A    between atoms: _497  and  _498
REMARK  210  A    between atoms: _497  and  _500
REMARK  211  A    between atoms: _500  and  _501
REMARK  212  A    between atoms: _504  and  _506
REMARK  213  A    between atoms: _506  and  _507
REMARK  214  A    between atoms: _506  and  _509
REMARK  215  A    between atoms: _509  and  _510
REMARK  216  A    between atoms: _516  and  _518
REMARK  217  A    between atoms: _518  and  _519
REMARK  218  A    between atoms: _518  and  _521
REMARK  219  A    between atoms: _521  and  _522
REMARK  220  A    between atoms: _522  and  _523
REMARK  221  A    between atoms: _523  and  _524
REMARK                            x       y       z     vdW  Elec       q    Type
REMARK                         _______ _______ _______ _____ _____    ______ ____
ROOT
ATOM      1  CA  LYS A   4      50.139  23.645  13.874  0.00  0.00    +0.149 C 
ENDROOT
BRANCH   1   2
ATOM      2  C   LYS A   4      48.665  23.197  13.981  0.00  0.00    +0.241 C 
ATOM      3  O   LYS A   4      48.341  22.314  14.774  0.00  0.00    -0.273 OA
ATOM      4  N   LEU A   5      47.778  23.825  13.182  0.00  0.00    -0.297 N 
ATOM      5  H   LEU A   5      48.122  24.549  12.519  0.00  0.00    +0.150 HD
BRANCH   4   6
ATOM      6  CA  LEU A   5      46.358  23.523  13.218  0.00  0.00    +0.149 C 
BRANCH   6   7
ATOM      7  C   LEU A   5      46.054  22.155  12.633  0.00  0.00    +0.241 C 
ATOM      8  O   LEU A   5      45.150  21.498  13.128  0.00  0.00    -0.273 OA
ATOM      9  N   PHE A   6      46.850  21.709  11.633  0.00  0.00    -0.298 N 
ATOM     10  H   PHE A   6      47.581  22.340  11.248  0.00  0.00    +0.150 HD
BRANCH   9  11
ATOM     11  CA  PHE A   6      46.709  20.366  11.082  0.00  0.00    +0.141 C 
BRANCH  11  12
ATOM     12  C   PHE A   6      46.979  19.343  12.200  0.00  0.00    +0.227 C 
ATOM     13  O   PHE A   6      46.204  18.396  12.377  0.00  0.00    -0.286 OA
ENDBRANCH  11  12
BRANCH  11  14
ATOM     14  CB  PHE A   6      47.713  20.160   9.940  0.00  0.00    +0.054 C 
BRANCH  14  15
ATOM     15  CG  PHE A   6      47.646  18.783   9.336  0.00  0.00    -0.020 A 
ATOM     16  CD2 PHE A   6      48.415  17.744   9.850  0.00  0.00    -0.004 A 
ATOM     17  CE2 PHE A   6      48.341  16.460   9.303  0.00  0.00    -0.000 A 
ATOM     18  CZ  PHE A   6      47.499  16.214   8.242  0.00  0.00    -0.000 A 
ATOM     19  CE1 PHE A   6      46.730  17.231   7.715  0.00  0.00    -0.000 A 
ATOM     20  CD1 PHE A   6      46.801  18.519   8.263  0.00  0.00    -0.004 A 
ENDBRANCH  14  15
ENDBRANCH  11  14
ENDBRANCH   9  11
ENDBRANCH   6   7
BRANCH   6  21
ATOM     21  CB  LEU A   5      45.565  24.637  12.538  0.00  0.00    +0.029 C 
BRANCH  21  22
ATOM     22  CG  LEU A   5      45.740  26.012  13.205  0.00  0.00    +0.002 C 
ATOM     23  CD2 LEU A   5      45.159  26.028  14.627  0.00  0.00    +0.000 C 
ATOM     24  CD1 LEU A   5      45.120  27.112  12.355  0.00  0.00    +0.000 C 
ENDBRANCH  21  22
ENDBRANCH   6  21
ENDBRANCH   4   6
ENDBRANCH   1   2
BRANCH   1  26
ATOM     25  C   SER A   3      50.343  22.795  11.600  0.00  0.00    +0.243 C 
ATOM     26  N   LYS A   4      50.483  23.824  12.462  0.00  0.00    -0.297 N 
ATOM     27  H   LYS A   4      50.835  24.743  12.124  0.00  0.00    +0.150 HD
ATOM     28  O   SER A   3      49.913  21.697  11.947  0.00  0.00    -0.273 OA
BRANCH  25  29
ATOM     29  CA  SER A   3      50.656  23.045  10.132  0.00  0.00    +0.178 C 
BRANCH  29  32
ATOM     30  C   ASN A   2      48.948  24.688   9.650  0.00  0.00    +0.241 C 
ATOM     31  O   ASN A   2      48.063  23.943  10.098  0.00  0.00    -0.273 OA
ATOM     32  N   SER A   3      50.253  24.350   9.651  0.00  0.00    -0.295 N 
ATOM     33  H   SER A   3      50.967  25.024   9.308  0.00  0.00    +0.150 HD
BRANCH  30  34
ATOM     34  CA  ASN A   2      48.588  26.050   9.070  0.00  0.00    +0.158 C 
BRANCH  34  36
ATOM     35  C   SER A   1      46.511  27.059   8.220  0.00  0.00    +0.241 C 
ATOM     36  N   ASN A   2      47.141  26.218   9.044  0.00  0.00    -0.297 N 
ATOM     37  H   ASN A   2      46.568  25.653   9.703  0.00  0.00    +0.150 HD
ATOM     38  O   SER A   1      47.104  27.835   7.475  0.00  0.00    -0.274 OA
BRANCH  35  39
ATOM     39  CA  SER A   1      44.998  26.996   8.196  0.00  0.00    +0.174 C 
BRANCH  39  40
ATOM     40  N   SER A   1      44.377  25.886   8.897  0.00  0.00    -0.236 NA
ATOM     41  H   SER A   1      44.279  25.951   9.930  0.00  0.00    +0.142 HD
ENDBRANCH  39  40
BRANCH  39  42
ATOM     42  CB  SER A   1      44.358  28.306   8.626  0.00  0.00    +0.163 C 
BRANCH  42  43
ATOM     43  OG  SER A   1      43.009  28.293   8.186  0.00  0.00    -0.380 OA
ATOM     44  H   SER A   1      42.568  29.138   8.454  0.00  0.00    +0.211 HD
ENDBRANCH  42  43
ENDBRANCH  39  42
ENDBRANCH  35  39
ENDBRANCH  34  36
BRANCH  34  45
ATOM     45  CB  ASN A   2      49.347  27.223   9.704  0.00  0.00    +0.114 C 
BRANCH  45  46
ATOM     46  CG  ASN A   2      49.157  27.383  11.178  0.00  0.00    +0.222 C 
ATOM     47  OD1 ASN A   2      48.770  26.452  11.904  0.00  0.00    -0.275 OA
ATOM     48  ND2 ASN A   2      49.478  28.574  11.656  0.00  0.00    -0.329 N 
ATOM     49 HD21 ASN A   2      49.411  28.760  12.677  0.00  0.00    +0.145 HD
ATOM     50 HD22 ASN A   2      49.797  29.324  11.011  0.00  0.00    +0.145 HD
ENDBRANCH  45  46
ENDBRANCH  34  45
ENDBRANCH  30  34
ENDBRANCH  29  32
BRANCH  29  51
ATOM     51  CB  SER A   3      52.114  22.761   9.807  0.00  0.00    +0.166 C 
BRANCH  51  52
ATOM     52  OG  SER A   3      52.960  23.684  10.474  0.00  0.00    -0.380 OA
ATOM     53  H   SER A   3      53.904  23.485  10.252  0.00  0.00    +0.211 HD
ENDBRANCH  51  52
ENDBRANCH  29  51
ENDBRANCH  25  29
ENDBRANCH   1  26
BRANCH   1  54
ATOM     54  CB  LYS A   4      50.352  24.966  14.648  0.00  0.00    +0.029 C 
BRANCH  54  55
ATOM     55  CG  LYS A   4      50.035  24.821  16.148  0.00  0.00    +0.000 C 
BRANCH  55  56
ATOM     56  CD  LYS A   4      50.151  26.113  16.951  0.00  0.00    -0.024 C 
BRANCH  56  57
ATOM     57  CE  LYS A   4      49.065  27.095  16.568  0.00  0.00    -0.086 C 
BRANCH  57  58
ATOM     58  NZ  LYS A   4      49.074  28.313  17.444  0.00  0.00    +0.380 N 
ATOM     59  HZ1 LYS A   4      48.921  28.029  18.433  0.00  0.00    -0.089 HD
ATOM     60  HZ2 LYS A   4      49.992  28.794  17.358  0.00  0.00    -0.089 HD
ATOM     61  HZ3 LYS A   4      48.314  28.958  17.146  0.00  0.00    -0.089 HD
ENDBRANCH  57  58
ENDBRANCH  56  57
ENDBRANCH  55  56
ENDBRANCH  54  55
ENDBRANCH   1  54
TORSDOF 27
REMARK  Name = ../refined-set-2016/4bb9/4bb9_pocket.pdb
REMARK  221 active torsions:
REMARK  status: ('A' for Active; 'I' for Inactive)
REMARK    1  A    between atoms: _1  and  _3
REMARK    2  A    between atoms: _3  and  _4
REMARK    3  A    between atoms: _3  and  _6
REMARK    4  A    between atoms: _6  and  _7
REMARK    5  A    between atoms: _10  and  _12
REMARK    6  A    between atoms: _12  and  _13
REMARK    7  A    between atoms: _12  and  _15
REMARK    8  A    between atoms: _15  and  _16
REMARK    9  A    between atoms: _16  and  _17
REMARK   10  A    between atoms: _20  and  _22
REMARK   11  A    between atoms: _22  and  _23
REMARK   12  A    between atoms: _22  and  _25
REMARK   13  A    between atoms: _25  and  _26
REMARK   14  A    between atoms: _28  and  _30
REMARK   15  A    between atoms: _30  and  _31
REMARK   16  A    between atoms: _33  and  _35
REMARK   17  A    between atoms: _35  and  _36
REMARK   18  A    between atoms: _38  and  _40
REMARK   19  A    between atoms: _40  and  _41
REMARK   20  A    between atoms: _43  and  _45
REMARK   21  A    between atoms: _45  and  _46
REMARK   22  A    between atoms: _45  and  _48
REMARK   23  A    between atoms: _48  and  _49
REMARK   24  A    between atoms: _52  and  _54
REMARK   25  A    between atoms: _54  and  _55
REMARK   26  A    between atoms: _54  and  _57
REMARK   27  A    between atoms: _57  and  _58
REMARK   28  A    between atoms: _60  and  _62
REMARK   29  A    between atoms: _62  and  _63
REMARK   30  A    between atoms: _65  and  _67
REMARK   31  A    between atoms: _67  and  _68
REMARK   32  A    between atoms: _67  and  _70
REMARK   33  A    between atoms: _70  and  _71
REMARK   34  A    between atoms: _71  and  _72
REMARK   35  A    between atoms: _72  and  _73
REMARK   36  A    between atoms: _82  and  _84
REMARK   37  A    between atoms: _84  and  _85
REMARK   38  A    between atoms: _84  and  _87
REMARK   39  A    between atoms: _87  and  _88
REMARK   40  A    between atoms: _88  and  _89
REMARK   41  A    between atoms: _91  and  _93
REMARK   42  A    between atoms: _93  and  _94
REMARK   43  A    between atoms: _97  and  _99
REMARK   44  A    between atoms: _99  and  _100
REMARK   45  A    between atoms: _99  and  _102
REMARK   46  A    between atoms: _102  and  _103
REMARK   47  A    between atoms: _105  and  _107
REMARK   48  A    between atoms: _107  and  _108
REMARK   49  A    between atoms: _107  and  _110
REMARK   50  A    between atoms: _110  and  _111
REMARK   51  A    between atoms: _111  and  _112
REMARK   52  A    between atoms: _112  and  _113
REMARK   53  A    between atoms: _122  and  _124
REMARK   54  A    between atoms: _124  and  _125
REMARK   55  A    between atoms: _124  and  _127
REMARK   56  A    between atoms: _127  and  _128
REMARK   57  A    between atoms: _128  and  _129
REMARK   58  A    between atoms: _132  and  _134
REMARK   59  A    between atoms: _134  and  _135
REMARK   60  A    between atoms: _137  and  _139
REMARK   61  A    between atoms: _139  and  _140
REMARK   62  A    between atoms: _139  and  _142
REMARK   63  A    between atoms: _142  and  _143
REMARK   64  A    between atoms: _146  and  _148
REMARK   65  A    between atoms: _148  and  _149
REMARK   66  A    between atoms: _148  and  _151
REMARK   67  A    between atoms: _151  and  _152
REMARK   68  A    between atoms: _152  and  _153
REMARK   69  A    between atoms: _156  and  _158
REMARK   70  A    between atoms: _158  and  _159
REMARK   71  A    between atoms: _158  and  _161
REMARK   72  A    between atoms: _161  and  _162
REMARK   73  A    between atoms: _165  and  _167
REMARK   74  A    between atoms: _167  and  _168
REMARK   75  A    between atoms: _167  and  _170
REMARK   76  A    between atoms: _170  and  _171
REMARK   77  A    between atoms: _174  and  _176
REMARK   78  A    between atoms: _176  and  _177
REMARK   79  A    between atoms: _176  and  _179
REMARK   80  A    between atoms: _179  and  _180
REMARK   81  A    between atoms: _182  and  _184
REMARK   82  A    between atoms: _184  and  _185
REMARK   83  A    between atoms: _184  and  _187
REMARK   84  A    between atoms: _190  and  _192
REMARK   85  A    between atoms: _192  and  _193
REMARK   86  A    between atoms: _195  and  _197
REMARK   87  A    between atoms: _197  and  _198
REMARK   88  A    between atoms: _197  and  _200
REMARK   89  A    between atoms: _200  and  _201
REMARK   90  A    between atoms: _204  and  _206
REMARK   91  A    between atoms: _206  and  _207
REMARK   92  A    between atoms: _206  and  _209
REMARK   93  A    between atoms: _209  and  _210
REMARK   94  A    between atoms: _212  and  _214
REMARK   95  A    between atoms: _214  and  _215
REMARK   96  A    between atoms: _219  and  _220
REMARK   97  A    between atoms: _225  and  _227
REMARK   98  A    between atoms: _227  and  _228
REMARK   99  A    between atoms: _227  and  _230
REMARK  100  A    between atoms: _230  and  _231
REMARK  101  A    between atoms: _237  and  _239
REMARK  102  A    between atoms: _239  and  _240
REMARK  103  A    between atoms: _239  and  _242
REMARK  104  A    between atoms: _245  and  _247
REMARK  105  A    between atoms: _247  and  _248
REMARK  106  A    between atoms: _251  and  _253
REMARK  107  A    between atoms: _253  and  _254
REMARK  108  A    between atoms: _253  and  _256
REMARK  109  A    between atoms: _259  and  _261
REMARK  110  A    between atoms: _261  and  _262
REMARK  111  A    between atoms: _264  and  _266
REMARK  112  A    between atoms: _266  and  _267
REMARK  113  A    between atoms: _266  and  _269
REMARK  114  A    between atoms: _269  and  _270
REMARK  115  A    between atoms: _276  and  _278
REMARK  116  A    between atoms: _278  and  _279
REMARK  117  A    between atoms: _278  and  _281
REMARK  118  A    between atoms: _281  and  _282
REMARK  119  A    between atoms: _287  and  _289
REMARK  120  A    between atoms: _289  and  _290
REMARK  121  A    between atoms: _289  and  _292
REMARK  122  A    between atoms: _292  and  _293
REMARK  123  A    between atoms: _293  and  _294
REMARK  124  A    between atoms: _294  and  _295
REMARK  125  A    between atoms: _304  and  _306
REMARK  126  A    between atoms: _306  and  _307
REMARK  127  A    between atoms: _306  and  _309
REMARK  128  A    between atoms: _309  and  _310
REMARK  129  A    between atoms: _316  and  _318
REMARK  130  A    between atoms: _318  and  _319
REMARK  131  A    between atoms: _321  and  _323
REMARK  132  A    between atoms: _323  and  _324
REMARK  133  A    between atoms: _323  and  _326
REMARK  134  A    between atoms: _326  and  _327
REMARK  135  A    between atoms: _329  and  _331
REMARK  136  A    between atoms: _331  and  _332
REMARK  137  A    between atoms: _331  and  _334
REMARK  138  A    between atoms: _334  and  _335
REMARK  139  A    between atoms: _337  and  _339
REMARK  140  A    between atoms: _339  and  _340
REMARK  141  A    between atoms: _339  and  _342
REMARK  142  A    between atoms: _342  and  _343
REMARK  143  A    between atoms: _343  and  _344
REMARK  144  A    between atoms: _344  and  _345
REMARK  145  A    between atoms: _354  and  _356
REMARK  146  A    between atoms: _356  and  _357
REMARK  147  A    between atoms: _356  and  _359
REMARK  148  A    between atoms: _359  and  _360
REMARK  149  A    between atoms: _360  and  _361
REMARK  150  A    between atoms: _363  and  _365
REMARK  151  A    between atoms: _365  and  _366
REMARK  152  A    between atoms: _368  and  _370
REMARK  153  A    between atoms: _370  and  _371
REMARK  154  A    between atoms: _373  and  _375
REMARK  155  A    between atoms: _375  and  _376
REMARK  156  A    between atoms: _375  and  _378
REMARK  157  A    between atoms: _378  and  _379
REMARK  158  A    between atoms: _382  and  _384
REMARK  159  A    between atoms: _384  and  _385
REMARK  160  A    between atoms: _384  and  _387
REMARK  161  A    between atoms: _390  and  _392
REMARK  162  A    between atoms: _392  and  _393
REMARK  163  A    between atoms: _392  and  _395
REMARK  164  A    between atoms: _395  and  _396
REMARK  165  A    between atoms: _396  and  _397
REMARK  166  A    between atoms: _400  and  _402
REMARK  167  A    between atoms: _402  and  _403
REMARK  168  A    between atoms: _402  and  _405
REMARK  169  A    between atoms: _405  and  _406
REMARK  170  A    between atoms: _411  and  _413
REMARK  171  A    between atoms: _413  and  _414
REMARK  172  A    between atoms: _413  and  _416
REMARK  173  A    between atoms: _416  and  _417
REMARK  174  A    between atoms: _420  and  _422
REMARK  175  A    between atoms: _422  and  _423
REMARK  176  A    between atoms: _422  and  _425
REMARK  177  A    between atoms: _425  and  _426
REMARK  178  A    between atoms: _426  and  _427
REMARK  179  A    between atoms: _429  and  _431
REMARK  180  A    between atoms: _431  and  _432
REMARK  181  A    between atoms: _431  and  _434
REMARK  182  A    between atoms: _434  and  _435
REMARK  183  A    between atoms: _438  and  _440
REMARK  184  A    between atoms: _440  and  _441
REMARK  185  A    between atoms: _440  and  _443
REMARK  186  A    between atoms: _443  and  _444
REMARK  187  A    between atoms: _444  and  _445
REMARK  188  A    between atoms: _445  and  _446
REMARK  189  A    between atoms: _455  and  _457
REMARK  190  A    between atoms: _457  and  _458
REMARK  191  A    between atoms: _457  and  _460
REMARK  192  A    between atoms: _460  and  _461
REMARK  193  A    between atoms: _463  and  _465
REMARK  194  A    between atoms: _465  and  _466
REMARK  195  A    between atoms: _465  and  _468
REMARK  196  A    between atoms: _468  and  _469
REMARK  197  A    between atoms: _474  and  _476
REMARK  198  A    between atoms: _476  and  _477
REMARK  199  A    between atoms: _476  and  _479
REMARK  200  A    between atoms: _479  and  _480
REMARK  201  A    between atoms: _482  and  _484
REMARK  202  A    between atoms: _484  and  _485
REMARK  203  A    between atoms: _484  and  _487
REMARK  204  A    between atoms: _487  and  _488
REMARK  205  A    between atoms: _488  and  _489
REMARK  206  A    between atoms: _489  and  _490
REMARK  207  A    between atoms: _490  and  _491
REMARK  208  A    between atoms: _495  and  _497
REMARK  209  A    between atoms: _497  and  _498
REMARK  210  A    between atoms: _497  and  _500
REMARK  211  A    between atoms: _500  and  _501
REMARK  212  A    between atoms: _504  and  _506
REMARK  213  A    between atoms: _506  and  _507
REMARK  214  A    between atoms: _506  and  _509
REMARK  215  A    between atoms: _509  and  _510
REMARK  216  A    between atoms: _516  and  _518
REMARK  217  A    between atoms: _518  and  _519
REMARK  218  A    between atoms: _518  and  _521
REMARK  219  A    between atoms: _521  and  _522
REMARK  220  A    between atoms: _522  and  _523
REMARK  221  A    between atoms: _523  and  _524
REMARK                            x       y       z     vdW  Elec       q    Type
REMARK                         _______ _______ _______ _____ _____    ______ ____
ROOT
ATOM      1  NE  ARG A   1      45.139  23.828  18.302  0.00  0.00    -0.265 N 
ATOM      2  HE  ARG A   1      45.950  23.266  18.632  0.00  0.00    +0.259 HD
ATOM      3  CZ  ARG A   1      45.257  25.150  18.303  0.00  0.00    +0.342 C 
ATOM      4  NH2 ARG A   1      46.410  25.718  18.643  0.00  0.00    -0.292 N 
ATOM      5 HH21 ARG A   1      47.223  25.126  18.909  0.00  0.00    +0.255 HD
ATOM      6 HH22 ARG A   1      46.499  26.754  18.643  0.00  0.00    +0.255 HD
ATOM      7  NH1 ARG A   1      44.226  25.916  17.949  0.00  0.00    -0.292 N 
ATOM      8 HH11 ARG A   1      44.323  26.951  17.951  0.00  0.00    +0.255 HD
ATOM      9 HH12 ARG A   1      43.325  25.478  17.671  0.00  0.00    +0.255 HD
ENDROOT
BRANCH   1  10
ATOM     10  CD  ARG A   1      43.942  23.112  17.867  0.00  0.00    +0.174 C 
BRANCH  10  11
ATOM     11  CG  ARG A   1      44.243  21.644  17.646  0.00  0.00    +0.045 C 
BRANCH  11  12
ATOM     12  CB  ARG A   1      45.315  21.402  16.591  0.00  0.00    +0.029 C 
BRANCH  12  13
ATOM     13  CA  ARG A   1      45.668  19.928  16.395  0.00  0.00    +0.133 C 
BRANCH  13  14
ATOM     14  N   ARG A   1      46.719  19.820  15.398  0.00  0.00    -0.239 NA
ATOM     15  H   ARG A   1      47.023  20.671  14.883  0.00  0.00    +0.142 HD
ENDBRANCH  13  14
BRANCH  13  16
ATOM     16  C   ARG A   1      44.435  19.133  15.932  0.00  0.00    +0.224 C 
ATOM     17  O   ARG A   1      43.799  18.469  16.740  0.00  0.00    -0.287 OA
ENDBRANCH  13  16
ENDBRANCH  12  13
ENDBRANCH  11  12
ENDBRANCH  10  11
ENDBRANCH   1  10
TORSDOF 6
REMARK  Name = ../refined-set-2016/4bb9/4bb9_pocket.pdb
REMARK  221 active torsions:
REMARK  status: ('A' for Active; 'I' for Inactive)
REMARK    1  A    between atoms: _1  and  _3
REMARK    2  A    between atoms: _3  and  _4
REMARK    3  A    between atoms: _3  and  _6
REMARK    4  A    between atoms: _6  and  _7
REMARK    5  A    between atoms: _10  and  _12
REMARK    6  A    between atoms: _12  and  _13
REMARK    7  A    between atoms: _12  and  _15
REMARK    8  A    between atoms: _15  and  _16
REMARK    9  A    between atoms: _16  and  _17
REMARK   10  A    between atoms: _20  and  _22
REMARK   11  A    between atoms: _22  and  _23
REMARK   12  A    between atoms: _22  and  _25
REMARK   13  A    between atoms: _25  and  _26
REMARK   14  A    between atoms: _28  and  _30
REMARK   15  A    between atoms: _30  and  _31
REMARK   16  A    between atoms: _33  and  _35
REMARK   17  A    between atoms: _35  and  _36
REMARK   18  A    between atoms: _38  and  _40
REMARK   19  A    between atoms: _40  and  _41
REMARK   20  A    between atoms: _43  and  _45
REMARK   21  A    between atoms: _45  and  _46
REMARK   22  A    between atoms: _45  and  _48
REMARK   23  A    between atoms: _48  and  _49
REMARK   24  A    between atoms: _52  and  _54
REMARK   25  A    between atoms: _54  and  _55
REMARK   26  A    between atoms: _54  and  _57
REMARK   27  A    between atoms: _57  and  _58
REMARK   28  A    between atoms: _60  and  _62
REMARK   29  A    between atoms: _62  and  _63
REMARK   30  A    between atoms: _65  and  _67
REMARK   31  A    between atoms: _67  and  _68
REMARK   32  A    between atoms: _67  and  _70
REMARK   33  A    between atoms: _70  and  _71
REMARK   34  A    between atoms: _71  and  _72
REMARK   35  A    between atoms: _72  and  _73
REMARK   36  A    between atoms: _82  and  _84
REMARK   37  A    between atoms: _84  and  _85
REMARK   38  A    between atoms: _84  and  _87
REMARK   39  A    between atoms: _87  and  _88
REMARK   40  A    between atoms: _88  and  _89
REMARK   41  A    between atoms: _91  and  _93
REMARK   42  A    between atoms: _93  and  _94
REMARK   43  A    between atoms: _97  and  _99
REMARK   44  A    between atoms: _99  and  _100
REMARK   45  A    between atoms: _99  and  _102
REMARK   46  A    between atoms: _102  and  _103
REMARK   47  A    between atoms: _105  and  _107
REMARK   48  A    between atoms: _107  and  _108
REMARK   49  A    between atoms: _107  and  _110
REMARK   50  A    between atoms: _110  and  _111
REMARK   51  A    between atoms: _111  and  _112
REMARK   52  A    between atoms: _112  and  _113
REMARK   53  A    between atoms: _122  and  _124
REMARK   54  A    between atoms: _124  and  _125
REMARK   55  A    between atoms: _124  and  _127
REMARK   56  A    between atoms: _127  and  _128
REMARK   57  A    between atoms: _128  and  _129
REMARK   58  A    between atoms: _132  and  _134
REMARK   59  A    between atoms: _134  and  _135
REMARK   60  A    between atoms: _137  and  _139
REMARK   61  A    between atoms: _139  and  _140
REMARK   62  A    between atoms: _139  and  _142
REMARK   63  A    between atoms: _142  and  _143
REMARK   64  A    between atoms: _146  and  _148
REMARK   65  A    between atoms: _148  and  _149
REMARK   66  A    between atoms: _148  and  _151
REMARK   67  A    between atoms: _151  and  _152
REMARK   68  A    between atoms: _152  and  _153
REMARK   69  A    between atoms: _156  and  _158
REMARK   70  A    between atoms: _158  and  _159
REMARK   71  A    between atoms: _158  and  _161
REMARK   72  A    between atoms: _161  and  _162
REMARK   73  A    between atoms: _165  and  _167
REMARK   74  A    between atoms: _167  and  _168
REMARK   75  A    between atoms: _167  and  _170
REMARK   76  A    between atoms: _170  and  _171
REMARK   77  A    between atoms: _174  and  _176
REMARK   78  A    between atoms: _176  and  _177
REMARK   79  A    between atoms: _176  and  _179
REMARK   80  A    between atoms: _179  and  _180
REMARK   81  A    between atoms: _182  and  _184
REMARK   82  A    between atoms: _184  and  _185
REMARK   83  A    between atoms: _184  and  _187
REMARK   84  A    between atoms: _190  and  _192
REMARK   85  A    between atoms: _192  and  _193
REMARK   86  A    between atoms: _195  and  _197
REMARK   87  A    between atoms: _197  and  _198
REMARK   88  A    between atoms: _197  and  _200
REMARK   89  A    between atoms: _200  and  _201
REMARK   90  A    between atoms: _204  and  _206
REMARK   91  A    between atoms: _206  and  _207
REMARK   92  A    between atoms: _206  and  _209
REMARK   93  A    between atoms: _209  and  _210
REMARK   94  A    between atoms: _212  and  _214
REMARK   95  A    between atoms: _214  and  _215
REMARK   96  A    between atoms: _219  and  _220
REMARK   97  A    between atoms: _225  and  _227
REMARK   98  A    between atoms: _227  and  _228
REMARK   99  A    between atoms: _227  and  _230
REMARK  100  A    between atoms: _230  and  _231
REMARK  101  A    between atoms: _237  and  _239
REMARK  102  A    between atoms: _239  and  _240
REMARK  103  A    between atoms: _239  and  _242
REMARK  104  A    between atoms: _245  and  _247
REMARK  105  A    between atoms: _247  and  _248
REMARK  106  A    between atoms: _251  and  _253
REMARK  107  A    between atoms: _253  and  _254
REMARK  108  A    between atoms: _253  and  _256
REMARK  109  A    between atoms: _259  and  _261
REMARK  110  A    between atoms: _261  and  _262
REMARK  111  A    between atoms: _264  and  _266
REMARK  112  A    between atoms: _266  and  _267
REMARK  113  A    between atoms: _266  and  _269
REMARK  114  A    between atoms: _269  and  _270
REMARK  115  A    between atoms: _276  and  _278
REMARK  116  A    between atoms: _278  and  _279
REMARK  117  A    between atoms: _278  and  _281
REMARK  118  A    between atoms: _281  and  _282
REMARK  119  A    between atoms: _287  and  _289
REMARK  120  A    between atoms: _289  and  _290
REMARK  121  A    between atoms: _289  and  _292
REMARK  122  A    between atoms: _292  and  _293
REMARK  123  A    between atoms: _293  and  _294
REMARK  124  A    between atoms: _294  and  _295
REMARK  125  A    between atoms: _304  and  _306
REMARK  126  A    between atoms: _306  and  _307
REMARK  127  A    between atoms: _306  and  _309
REMARK  128  A    between atoms: _309  and  _310
REMARK  129  A    between atoms: _316  and  _318
REMARK  130  A    between atoms: _318  and  _319
REMARK  131  A    between atoms: _321  and  _323
REMARK  132  A    between atoms: _323  and  _324
REMARK  133  A    between atoms: _323  and  _326
REMARK  134  A    between atoms: _326  and  _327
REMARK  135  A    between atoms: _329  and  _331
REMARK  136  A    between atoms: _331  and  _332
REMARK  137  A    between atoms: _331  and  _334
REMARK  138  A    between atoms: _334  and  _335
REMARK  139  A    between atoms: _337  and  _339
REMARK  140  A    between atoms: _339  and  _340
REMARK  141  A    between atoms: _339  and  _342
REMARK  142  A    between atoms: _342  and  _343
REMARK  143  A    between atoms: _343  and  _344
REMARK  144  A    between atoms: _344  and  _345
REMARK  145  A    between atoms: _354  and  _356
REMARK  146  A    between atoms: _356  and  _357
REMARK  147  A    between atoms: _356  and  _359
REMARK  148  A    between atoms: _359  and  _360
REMARK  149  A    between atoms: _360  and  _361
REMARK  150  A    between atoms: _363  and  _365
REMARK  151  A    between atoms: _365  and  _366
REMARK  152  A    between atoms: _368  and  _370
REMARK  153  A    between atoms: _370  and  _371
REMARK  154  A    between atoms: _373  and  _375
REMARK  155  A    between atoms: _375  and  _376
REMARK  156  A    between atoms: _375  and  _378
REMARK  157  A    between atoms: _378  and  _379
REMARK  158  A    between atoms: _382  and  _384
REMARK  159  A    between atoms: _384  and  _385
REMARK  160  A    between atoms: _384  and  _387
REMARK  161  A    between atoms: _390  and  _392
REMARK  162  A    between atoms: _392  and  _393
REMARK  163  A    between atoms: _392  and  _395
REMARK  164  A    between atoms: _395  and  _396
REMARK  165  A    between atoms: _396  and  _397
REMARK  166  A    between atoms: _400  and  _402
REMARK  167  A    between atoms: _402  and  _403
REMARK  168  A    between atoms: _402  and  _405
REMARK  169  A    between atoms: _405  and  _406
REMARK  170  A    between atoms: _411  and  _413
REMARK  171  A    between atoms: _413  and  _414
REMARK  172  A    between atoms: _413  and  _416
REMARK  173  A    between atoms: _416  and  _417
REMARK  174  A    between atoms: _420  and  _422
REMARK  175  A    between atoms: _422  and  _423
REMARK  176  A    between atoms: _422  and  _425
REMARK  177  A    between atoms: _425  and  _426
REMARK  178  A    between atoms: _426  and  _427
REMARK  179  A    between atoms: _429  and  _431
REMARK  180  A    between atoms: _431  and  _432
REMARK  181  A    between atoms: _431  and  _434
REMARK  182  A    between atoms: _434  and  _435
REMARK  183  A    between atoms: _438  and  _440
REMARK  184  A    between atoms: _440  and  _441
REMARK  185  A    between atoms: _440  and  _443
REMARK  186  A    between atoms: _443  and  _444
REMARK  187  A    between atoms: _444  and  _445
REMARK  188  A    between atoms: _445  and  _446
REMARK  189  A    between atoms: _455  and  _457
REMARK  190  A    between atoms: _457  and  _458
REMARK  191  A    between atoms: _457  and  _460
REMARK  192  A    between atoms: _460  and  _461
REMARK  193  A    between atoms: _463  and  _465
REMARK  194  A    between atoms: _465  and  _466
REMARK  195  A    between atoms: _465  and  _468
REMARK  196  A    between atoms: _468  and  _469
REMARK  197  A    between atoms: _474  and  _476
REMARK  198  A    between atoms: _476  and  _477
REMARK  199  A    between atoms: _476  and  _479
REMARK  200  A    between atoms: _479  and  _480
REMARK  201  A    between atoms: _482  and  _484
REMARK  202  A    between atoms: _484  and  _485
REMARK  203  A    between atoms: _484  and  _487
REMARK  204  A    between atoms: _487  and  _488
REMARK  205  A    between atoms: _488  and  _489
REMARK  206  A    between atoms: _489  and  _490
REMARK  207  A    between atoms: _490  and  _491
REMARK  208  A    between atoms: _495  and  _497
REMARK  209  A    between atoms: _497  and  _498
REMARK  210  A    between atoms: _497  and  _500
REMARK  211  A    between atoms: _500  and  _501
REMARK  212  A    between atoms: _504  and  _506
REMARK  213  A    between atoms: _506  and  _507
REMARK  214  A    between atoms: _506  and  _509
REMARK  215  A    between atoms: _509  and  _510
REMARK  216  A    between atoms: _516  and  _518
REMARK  217  A    between atoms: _518  and  _519
REMARK  218  A    between atoms: _518  and  _521
REMARK  219  A    between atoms: _521  and  _522
REMARK  220  A    between atoms: _522  and  _523
REMARK  221  A    between atoms: _523  and  _524
REMARK                            x       y       z     vdW  Elec       q    Type
REMARK                         _______ _______ _______ _____ _____    ______ ____
ROOT
ATOM      1  O   HOH     1      51.886  21.796  17.864  0.00  0.00    +0.000 OA
ENDROOT
TORSDOF 0
REMARK  Name = ../refined-set-2016/4bb9/4bb9_pocket.pdb
REMARK  221 active torsions:
REMARK  status: ('A' for Active; 'I' for Inactive)
REMARK    1  A    between atoms: _1  and  _3
REMARK    2  A    between atoms: _3  and  _4
REMARK    3  A    between atoms: _3  and  _6
REMARK    4  A    between atoms: _6  and  _7
REMARK    5  A    between atoms: _10  and  _12
REMARK    6  A    between atoms: _12  and  _13
REMARK    7  A    between atoms: _12  and  _15
REMARK    8  A    between atoms: _15  and  _16
REMARK    9  A    between atoms: _16  and  _17
REMARK   10  A    between atoms: _20  and  _22
REMARK   11  A    between atoms: _22  and  _23
REMARK   12  A    between atoms: _22  and  _25
REMARK   13  A    between atoms: _25  and  _26
REMARK   14  A    between atoms: _28  and  _30
REMARK   15  A    between atoms: _30  and  _31
REMARK   16  A    between atoms: _33  and  _35
REMARK   17  A    between atoms: _35  and  _36
REMARK   18  A    between atoms: _38  and  _40
REMARK   19  A    between atoms: _40  and  _41
REMARK   20  A    between atoms: _43  and  _45
REMARK   21  A    between atoms: _45  and  _46
REMARK   22  A    between atoms: _45  and  _48
REMARK   23  A    between atoms: _48  and  _49
REMARK   24  A    between atoms: _52  and  _54
REMARK   25  A    between atoms: _54  and  _55
REMARK   26  A    between atoms: _54  and  _57
REMARK   27  A    between atoms: _57  and  _58
REMARK   28  A    between atoms: _60  and  _62
REMARK   29  A    between atoms: _62  and  _63
REMARK   30  A    between atoms: _65  and  _67
REMARK   31  A    between atoms: _67  and  _68
REMARK   32  A    between atoms: _67  and  _70
REMARK   33  A    between atoms: _70  and  _71
REMARK   34  A    between atoms: _71  and  _72
REMARK   35  A    between atoms: _72  and  _73
REMARK   36  A    between atoms: _82  and  _84
REMARK   37  A    between atoms: _84  and  _85
REMARK   38  A    between atoms: _84  and  _87
REMARK   39  A    between atoms: _87  and  _88
REMARK   40  A    between atoms: _88  and  _89
REMARK   41  A    between atoms: _91  and  _93
REMARK   42  A    between atoms: _93  and  _94
REMARK   43  A    between atoms: _97  and  _99
REMARK   44  A    between atoms: _99  and  _100
REMARK   45  A    between atoms: _99  and  _102
REMARK   46  A    between atoms: _102  and  _103
REMARK   47  A    between atoms: _105  and  _107
REMARK   48  A    between atoms: _107  and  _108
REMARK   49  A    between atoms: _107  and  _110
REMARK   50  A    between atoms: _110  and  _111
REMARK   51  A    between atoms: _111  and  _112
REMARK   52  A    between atoms: _112  and  _113
REMARK   53  A    between atoms: _122  and  _124
REMARK   54  A    between atoms: _124  and  _125
REMARK   55  A    between atoms: _124  and  _127
REMARK   56  A    between atoms: _127  and  _128
REMARK   57  A    between atoms: _128  and  _129
REMARK   58  A    between atoms: _132  and  _134
REMARK   59  A    between atoms: _134  and  _135
REMARK   60  A    between atoms: _137  and  _139
REMARK   61  A    between atoms: _139  and  _140
REMARK   62  A    between atoms: _139  and  _142
REMARK   63  A    between atoms: _142  and  _143
REMARK   64  A    between atoms: _146  and  _148
REMARK   65  A    between atoms: _148  and  _149
REMARK   66  A    between atoms: _148  and  _151
REMARK   67  A    between atoms: _151  and  _152
REMARK   68  A    between atoms: _152  and  _153
REMARK   69  A    between atoms: _156  and  _158
REMARK   70  A    between atoms: _158  and  _159
REMARK   71  A    between atoms: _158  and  _161
REMARK   72  A    between atoms: _161  and  _162
REMARK   73  A    between atoms: _165  and  _167
REMARK   74  A    between atoms: _167  and  _168
REMARK   75  A    between atoms: _167  and  _170
REMARK   76  A    between atoms: _170  and  _171
REMARK   77  A    between atoms: _174  and  _176
REMARK   78  A    between atoms: _176  and  _177
REMARK   79  A    between atoms: _176  and  _179
REMARK   80  A    between atoms: _179  and  _180
REMARK   81  A    between atoms: _182  and  _184
REMARK   82  A    between atoms: _184  and  _185
REMARK   83  A    between atoms: _184  and  _187
REMARK   84  A    between atoms: _190  and  _192
REMARK   85  A    between atoms: _192  and  _193
REMARK   86  A    between atoms: _195  and  _197
REMARK   87  A    between atoms: _197  and  _198
REMARK   88  A    between atoms: _197  and  _200
REMARK   89  A    between atoms: _200  and  _201
REMARK   90  A    between atoms: _204  and  _206
REMARK   91  A    between atoms: _206  and  _207
REMARK   92  A    between atoms: _206  and  _209
REMARK   93  A    between atoms: _209  and  _210
REMARK   94  A    between atoms: _212  and  _214
REMARK   95  A    between atoms: _214  and  _215
REMARK   96  A    between atoms: _219  and  _220
REMARK   97  A    between atoms: _225  and  _227
REMARK   98  A    between atoms: _227  and  _228
REMARK   99  A    between atoms: _227  and  _230
REMARK  100  A    between atoms: _230  and  _231
REMARK  101  A    between atoms: _237  and  _239
REMARK  102  A    between atoms: _239  and  _240
REMARK  103  A    between atoms: _239  and  _242
REMARK  104  A    between atoms: _245  and  _247
REMARK  105  A    between atoms: _247  and  _248
REMARK  106  A    between atoms: _251  and  _253
REMARK  107  A    between atoms: _253  and  _254
REMARK  108  A    between atoms: _253  and  _256
REMARK  109  A    between atoms: _259  and  _261
REMARK  110  A    between atoms: _261  and  _262
REMARK  111  A    between atoms: _264  and  _266
REMARK  112  A    between atoms: _266  and  _267
REMARK  113  A    between atoms: _266  and  _269
REMARK  114  A    between atoms: _269  and  _270
REMARK  115  A    between atoms: _276  and  _278
REMARK  116  A    between atoms: _278  and  _279
REMARK  117  A    between atoms: _278  and  _281
REMARK  118  A    between atoms: _281  and  _282
REMARK  119  A    between atoms: _287  and  _289
REMARK  120  A    between atoms: _289  and  _290
REMARK  121  A    between atoms: _289  and  _292
REMARK  122  A    between atoms: _292  and  _293
REMARK  123  A    between atoms: _293  and  _294
REMARK  124  A    between atoms: _294  and  _295
REMARK  125  A    between atoms: _304  and  _306
REMARK  126  A    between atoms: _306  and  _307
REMARK  127  A    between atoms: _306  and  _309
REMARK  128  A    between atoms: _309  and  _310
REMARK  129  A    between atoms: _316  and  _318
REMARK  130  A    between atoms: _318  and  _319
REMARK  131  A    between atoms: _321  and  _323
REMARK  132  A    between atoms: _323  and  _324
REMARK  133  A    between atoms: _323  and  _326
REMARK  134  A    between atoms: _326  and  _327
REMARK  135  A    between atoms: _329  and  _331
REMARK  136  A    between atoms: _331  and  _332
REMARK  137  A    between atoms: _331  and  _334
REMARK  138  A    between atoms: _334  and  _335
REMARK  139  A    between atoms: _337  and  _339
REMARK  140  A    between atoms: _339  and  _340
REMARK  141  A    between atoms: _339  and  _342
REMARK  142  A    between atoms: _342  and  _343
REMARK  143  A    between atoms: _343  and  _344
REMARK  144  A    between atoms: _344  and  _345
REMARK  145  A    between atoms: _354  and  _356
REMARK  146  A    between atoms: _356  and  _357
REMARK  147  A    between atoms: _356  and  _359
REMARK  148  A    between atoms: _359  and  _360
REMARK  149  A    between atoms: _360  and  _361
REMARK  150  A    between atoms: _363  and  _365
REMARK  151  A    between atoms: _365  and  _366
REMARK  152  A    between atoms: _368  and  _370
REMARK  153  A    between atoms: _370  and  _371
REMARK  154  A    between atoms: _373  and  _375
REMARK  155  A    between atoms: _375  and  _376
REMARK  156  A    between atoms: _375  and  _378
REMARK  157  A    between atoms: _378  and  _379
REMARK  158  A    between atoms: _382  and  _384
REMARK  159  A    between atoms: _384  and  _385
REMARK  160  A    between atoms: _384  and  _387
REMARK  161  A    between atoms: _390  and  _392
REMARK  162  A    between atoms: _392  and  _393
REMARK  163  A    between atoms: _392  and  _395
REMARK  164  A    between atoms: _395  and  _396
REMARK  165  A    between atoms: _396  and  _397
REMARK  166  A    between atoms: _400  and  _402
REMARK  167  A    between atoms: _402  and  _403
REMARK  168  A    between atoms: _402  and  _405
REMARK  169  A    between atoms: _405  and  _406
REMARK  170  A    between atoms: _411  and  _413
REMARK  171  A    between atoms: _413  and  _414
REMARK  172  A    between atoms: _413  and  _416
REMARK  173  A    between atoms: _416  and  _417
REMARK  174  A    between atoms: _420  and  _422
REMARK  175  A    between atoms: _422  and  _423
REMARK  176  A    between atoms: _422  and  _425
REMARK  177  A    between atoms: _425  and  _426
REMARK  178  A    between atoms: _426  and  _427
REMARK  179  A    between atoms: _429  and  _431
REMARK  180  A    between atoms: _431  and  _432
REMARK  181  A    between atoms: _431  and  _434
REMARK  182  A    between atoms: _434  and  _435
REMARK  183  A    between atoms: _438  and  _440
REMARK  184  A    between atoms: _440  and  _441
REMARK  185  A    between atoms: _440  and  _443
REMARK  186  A    between atoms: _443  and  _444
REMARK  187  A    between atoms: _444  and  _445
REMARK  188  A    between atoms: _445  and  _446
REMARK  189  A    between atoms: _455  and  _457
REMARK  190  A    between atoms: _457  and  _458
REMARK  191  A    between atoms: _457  and  _460
REMARK  192  A    between atoms: _460  and  _461
REMARK  193  A    between atoms: _463  and  _465
REMARK  194  A    between atoms: _465  and  _466
REMARK  195  A    between atoms: _465  and  _468
REMARK  196  A    between atoms: _468  and  _469
REMARK  197  A    between atoms: _474  and  _476
REMARK  198  A    between atoms: _476  and  _477
REMARK  199  A    between atoms: _476  and  _479
REMARK  200  A    between atoms: _479  and  _480
REMARK  201  A    between atoms: _482  and  _484
REMARK  202  A    between atoms: _484  and  _485
REMARK  203  A    between atoms: _484  and  _487
REMARK  204  A    between atoms: _487  and  _488
REMARK  205  A    between atoms: _488  and  _489
REMARK  206  A    between atoms: _489  and  _490
REMARK  207  A    between atoms: _490  and  _491
REMARK  208  A    between atoms: _495  and  _497
REMARK  209  A    between atoms: _497  and  _498
REMARK  210  A    between atoms: _497  and  _500
REMARK  211  A    between atoms: _500  and  _501
REMARK  212  A    between atoms: _504  and  _506
REMARK  213  A    between atoms: _506  and  _507
REMARK  214  A    between atoms: _506  and  _509
REMARK  215  A    between atoms: _509  and  _510
REMARK  216  A    between atoms: _516  and  _518
REMARK  217  A    between atoms: _518  and  _519
REMARK  218  A    between atoms: _518  and  _521
REMARK  219  A    between atoms: _521  and  _522
REMARK  220  A    between atoms: _522  and  _523
REMARK  221  A    between atoms: _523  and  _524
REMARK                            x       y       z     vdW  Elec       q    Type
REMARK                         _______ _______ _______ _____ _____    ______ ____
ROOT
ATOM      1  O   HOH     1      47.785  27.938  22.997  0.00  0.00    +0.000 OA
ENDROOT
TORSDOF 0
REMARK  Name = ../refined-set-2016/4bb9/4bb9_pocket.pdb
REMARK  221 active torsions:
REMARK  status: ('A' for Active; 'I' for Inactive)
REMARK    1  A    between atoms: _1  and  _3
REMARK    2  A    between atoms: _3  and  _4
REMARK    3  A    between atoms: _3  and  _6
REMARK    4  A    between atoms: _6  and  _7
REMARK    5  A    between atoms: _10  and  _12
REMARK    6  A    between atoms: _12  and  _13
REMARK    7  A    between atoms: _12  and  _15
REMARK    8  A    between atoms: _15  and  _16
REMARK    9  A    between atoms: _16  and  _17
REMARK   10  A    between atoms: _20  and  _22
REMARK   11  A    between atoms: _22  and  _23
REMARK   12  A    between atoms: _22  and  _25
REMARK   13  A    between atoms: _25  and  _26
REMARK   14  A    between atoms: _28  and  _30
REMARK   15  A    between atoms: _30  and  _31
REMARK   16  A    between atoms: _33  and  _35
REMARK   17  A    between atoms: _35  and  _36
REMARK   18  A    between atoms: _38  and  _40
REMARK   19  A    between atoms: _40  and  _41
REMARK   20  A    between atoms: _43  and  _45
REMARK   21  A    between atoms: _45  and  _46
REMARK   22  A    between atoms: _45  and  _48
REMARK   23  A    between atoms: _48  and  _49
REMARK   24  A    between atoms: _52  and  _54
REMARK   25  A    between atoms: _54  and  _55
REMARK   26  A    between atoms: _54  and  _57
REMARK   27  A    between atoms: _57  and  _58
REMARK   28  A    between atoms: _60  and  _62
REMARK   29  A    between atoms: _62  and  _63
REMARK   30  A    between atoms: _65  and  _67
REMARK   31  A    between atoms: _67  and  _68
REMARK   32  A    between atoms: _67  and  _70
REMARK   33  A    between atoms: _70  and  _71
REMARK   34  A    between atoms: _71  and  _72
REMARK   35  A    between atoms: _72  and  _73
REMARK   36  A    between atoms: _82  and  _84
REMARK   37  A    between atoms: _84  and  _85
REMARK   38  A    between atoms: _84  and  _87
REMARK   39  A    between atoms: _87  and  _88
REMARK   40  A    between atoms: _88  and  _89
REMARK   41  A    between atoms: _91  and  _93
REMARK   42  A    between atoms: _93  and  _94
REMARK   43  A    between atoms: _97  and  _99
REMARK   44  A    between atoms: _99  and  _100
REMARK   45  A    between atoms: _99  and  _102
REMARK   46  A    between atoms: _102  and  _103
REMARK   47  A    between atoms: _105  and  _107
REMARK   48  A    between atoms: _107  and  _108
REMARK   49  A    between atoms: _107  and  _110
REMARK   50  A    between atoms: _110  and  _111
REMARK   51  A    between atoms: _111  and  _112
REMARK   52  A    between atoms: _112  and  _113
REMARK   53  A    between atoms: _122  and  _124
REMARK   54  A    between atoms: _124  and  _125
REMARK   55  A    between atoms: _124  and  _127
REMARK   56  A    between atoms: _127  and  _128
REMARK   57  A    between atoms: _128  and  _129
REMARK   58  A    between atoms: _132  and  _134
REMARK   59  A    between atoms: _134  and  _135
REMARK   60  A    between atoms: _137  and  _139
REMARK   61  A    between atoms: _139  and  _140
REMARK   62  A    between atoms: _139  and  _142
REMARK   63  A    between atoms: _142  and  _143
REMARK   64  A    between atoms: _146  and  _148
REMARK   65  A    between atoms: _148  and  _149
REMARK   66  A    between atoms: _148  and  _151
REMARK   67  A    between atoms: _151  and  _152
REMARK   68  A    between atoms: _152  and  _153
REMARK   69  A    between atoms: _156  and  _158
REMARK   70  A    between atoms: _158  and  _159
REMARK   71  A    between atoms: _158  and  _161
REMARK   72  A    between atoms: _161  and  _162
REMARK   73  A    between atoms: _165  and  _167
REMARK   74  A    between atoms: _167  and  _168
REMARK   75  A    between atoms: _167  and  _170
REMARK   76  A    between atoms: _170  and  _171
REMARK   77  A    between atoms: _174  and  _176
REMARK   78  A    between atoms: _176  and  _177
REMARK   79  A    between atoms: _176  and  _179
REMARK   80  A    between atoms: _179  and  _180
REMARK   81  A    between atoms: _182  and  _184
REMARK   82  A    between atoms: _184  and  _185
REMARK   83  A    between atoms: _184  and  _187
REMARK   84  A    between atoms: _190  and  _192
REMARK   85  A    between atoms: _192  and  _193
REMARK   86  A    between atoms: _195  and  _197
REMARK   87  A    between atoms: _197  and  _198
REMARK   88  A    between atoms: _197  and  _200
REMARK   89  A    between atoms: _200  and  _201
REMARK   90  A    between atoms: _204  and  _206
REMARK   91  A    between atoms: _206  and  _207
REMARK   92  A    between atoms: _206  and  _209
REMARK   93  A    between atoms: _209  and  _210
REMARK   94  A    between atoms: _212  and  _214
REMARK   95  A    between atoms: _214  and  _215
REMARK   96  A    between atoms: _219  and  _220
REMARK   97  A    between atoms: _225  and  _227
REMARK   98  A    between atoms: _227  and  _228
REMARK   99  A    between atoms: _227  and  _230
REMARK  100  A    between atoms: _230  and  _231
REMARK  101  A    between atoms: _237  and  _239
REMARK  102  A    between atoms: _239  and  _240
REMARK  103  A    between atoms: _239  and  _242
REMARK  104  A    between atoms: _245  and  _247
REMARK  105  A    between atoms: _247  and  _248
REMARK  106  A    between atoms: _251  and  _253
REMARK  107  A    between atoms: _253  and  _254
REMARK  108  A    between atoms: _253  and  _256
REMARK  109  A    between atoms: _259  and  _261
REMARK  110  A    between atoms: _261  and  _262
REMARK  111  A    between atoms: _264  and  _266
REMARK  112  A    between atoms: _266  and  _267
REMARK  113  A    between atoms: _266  and  _269
REMARK  114  A    between atoms: _269  and  _270
REMARK  115  A    between atoms: _276  and  _278
REMARK  116  A    between atoms: _278  and  _279
REMARK  117  A    between atoms: _278  and  _281
REMARK  118  A    between atoms: _281  and  _282
REMARK  119  A    between atoms: _287  and  _289
REMARK  120  A    between atoms: _289  and  _290
REMARK  121  A    between atoms: _289  and  _292
REMARK  122  A    between atoms: _292  and  _293
REMARK  123  A    between atoms: _293  and  _294
REMARK  124  A    between atoms: _294  and  _295
REMARK  125  A    between atoms: _304  and  _306
REMARK  126  A    between atoms: _306  and  _307
REMARK  127  A    between atoms: _306  and  _309
REMARK  128  A    between atoms: _309  and  _310
REMARK  129  A    between atoms: _316  and  _318
REMARK  130  A    between atoms: _318  and  _319
REMARK  131  A    between atoms: _321  and  _323
REMARK  132  A    between atoms: _323  and  _324
REMARK  133  A    between atoms: _323  and  _326
REMARK  134  A    between atoms: _326  and  _327
REMARK  135  A    between atoms: _329  and  _331
REMARK  136  A    between atoms: _331  and  _332
REMARK  137  A    between atoms: _331  and  _334
REMARK  138  A    between atoms: _334  and  _335
REMARK  139  A    between atoms: _337  and  _339
REMARK  140  A    between atoms: _339  and  _340
REMARK  141  A    between atoms: _339  and  _342
REMARK  142  A    between atoms: _342  and  _343
REMARK  143  A    between atoms: _343  and  _344
REMARK  144  A    between atoms: _344  and  _345
REMARK  145  A    between atoms: _354  and  _356
REMARK  146  A    between atoms: _356  and  _357
REMARK  147  A    between atoms: _356  and  _359
REMARK  148  A    between atoms: _359  and  _360
REMARK  149  A    between atoms: _360  and  _361
REMARK  150  A    between atoms: _363  and  _365
REMARK  151  A    between atoms: _365  and  _366
REMARK  152  A    between atoms: _368  and  _370
REMARK  153  A    between atoms: _370  and  _371
REMARK  154  A    between atoms: _373  and  _375
REMARK  155  A    between atoms: _375  and  _376
REMARK  156  A    between atoms: _375  and  _378
REMARK  157  A    between atoms: _378  and  _379
REMARK  158  A    between atoms: _382  and  _384
REMARK  159  A    between atoms: _384  and  _385
REMARK  160  A    between atoms: _384  and  _387
REMARK  161  A    between atoms: _390  and  _392
REMARK  162  A    between atoms: _392  and  _393
REMARK  163  A    between atoms: _392  and  _395
REMARK  164  A    between atoms: _395  and  _396
REMARK  165  A    between atoms: _396  and  _397
REMARK  166  A    between atoms: _400  and  _402
REMARK  167  A    between atoms: _402  and  _403
REMARK  168  A    between atoms: _402  and  _405
REMARK  169  A    between atoms: _405  and  _406
REMARK  170  A    between atoms: _411  and  _413
REMARK  171  A    between atoms: _413  and  _414
REMARK  172  A    between atoms: _413  and  _416
REMARK  173  A    between atoms: _416  and  _417
REMARK  174  A    between atoms: _420  and  _422
REMARK  175  A    between atoms: _422  and  _423
REMARK  176  A    between atoms: _422  and  _425
REMARK  177  A    between atoms: _425  and  _426
REMARK  178  A    between atoms: _426  and  _427
REMARK  179  A    between atoms: _429  and  _431
REMARK  180  A    between atoms: _431  and  _432
REMARK  181  A    between atoms: _431  and  _434
REMARK  182  A    between atoms: _434  and  _435
REMARK  183  A    between atoms: _438  and  _440
REMARK  184  A    between atoms: _440  and  _441
REMARK  185  A    between atoms: _440  and  _443
REMARK  186  A    between atoms: _443  and  _444
REMARK  187  A    between atoms: _444  and  _445
REMARK  188  A    between atoms: _445  and  _446
REMARK  189  A    between atoms: _455  and  _457
REMARK  190  A    between atoms: _457  and  _458
REMARK  191  A    between atoms: _457  and  _460
REMARK  192  A    between atoms: _460  and  _461
REMARK  193  A    between atoms: _463  and  _465
REMARK  194  A    between atoms: _465  and  _466
REMARK  195  A    between atoms: _465  and  _468
REMARK  196  A    between atoms: _468  and  _469
REMARK  197  A    between atoms: _474  and  _476
REMARK  198  A    between atoms: _476  and  _477
REMARK  199  A    between atoms: _476  and  _479
REMARK  200  A    between atoms: _479  and  _480
REMARK  201  A    between atoms: _482  and  _484
REMARK  202  A    between atoms: _484  and  _485
REMARK  203  A    between atoms: _484  and  _487
REMARK  204  A    between atoms: _487  and  _488
REMARK  205  A    between atoms: _488  and  _489
REMARK  206  A    between atoms: _489  and  _490
REMARK  207  A    between atoms: _490  and  _491
REMARK  208  A    between atoms: _495  and  _497
REMARK  209  A    between atoms: _497  and  _498
REMARK  210  A    between atoms: _497  and  _500
REMARK  211  A    between atoms: _500  and  _501
REMARK  212  A    between atoms: _504  and  _506
REMARK  213  A    between atoms: _506  and  _507
REMARK  214  A    between atoms: _506  and  _509
REMARK  215  A    between atoms: _509  and  _510
REMARK  216  A    between atoms: _516  and  _518
REMARK  217  A    between atoms: _518  and  _519
REMARK  218  A    between atoms: _518  and  _521
REMARK  219  A    between atoms: _521  and  _522
REMARK  220  A    between atoms: _522  and  _523
REMARK  221  A    between atoms: _523  and  _524
REMARK                            x       y       z     vdW  Elec       q    Type
REMARK                         _______ _______ _______ _____ _____    ______ ____
ROOT
ATOM      1  O   HOH     1      50.534  25.196  20.534  0.00  0.00    +0.000 OA
ENDROOT
TORSDOF 0
REMARK  Name = ../refined-set-2016/4bb9/4bb9_pocket.pdb
REMARK  221 active torsions:
REMARK  status: ('A' for Active; 'I' for Inactive)
REMARK    1  A    between atoms: _1  and  _3
REMARK    2  A    between atoms: _3  and  _4
REMARK    3  A    between atoms: _3  and  _6
REMARK    4  A    between atoms: _6  and  _7
REMARK    5  A    between atoms: _10  and  _12
REMARK    6  A    between atoms: _12  and  _13
REMARK    7  A    between atoms: _12  and  _15
REMARK    8  A    between atoms: _15  and  _16
REMARK    9  A    between atoms: _16  and  _17
REMARK   10  A    between atoms: _20  and  _22
REMARK   11  A    between atoms: _22  and  _23
REMARK   12  A    between atoms: _22  and  _25
REMARK   13  A    between atoms: _25  and  _26
REMARK   14  A    between atoms: _28  and  _30
REMARK   15  A    between atoms: _30  and  _31
REMARK   16  A    between atoms: _33  and  _35
REMARK   17  A    between atoms: _35  and  _36
REMARK   18  A    between atoms: _38  and  _40
REMARK   19  A    between atoms: _40  and  _41
REMARK   20  A    between atoms: _43  and  _45
REMARK   21  A    between atoms: _45  and  _46
REMARK   22  A    between atoms: _45  and  _48
REMARK   23  A    between atoms: _48  and  _49
REMARK   24  A    between atoms: _52  and  _54
REMARK   25  A    between atoms: _54  and  _55
REMARK   26  A    between atoms: _54  and  _57
REMARK   27  A    between atoms: _57  and  _58
REMARK   28  A    between atoms: _60  and  _62
REMARK   29  A    between atoms: _62  and  _63
REMARK   30  A    between atoms: _65  and  _67
REMARK   31  A    between atoms: _67  and  _68
REMARK   32  A    between atoms: _67  and  _70
REMARK   33  A    between atoms: _70  and  _71
REMARK   34  A    between atoms: _71  and  _72
REMARK   35  A    between atoms: _72  and  _73
REMARK   36  A    between atoms: _82  and  _84
REMARK   37  A    between atoms: _84  and  _85
REMARK   38  A    between atoms: _84  and  _87
REMARK   39  A    between atoms: _87  and  _88
REMARK   40  A    between atoms: _88  and  _89
REMARK   41  A    between atoms: _91  and  _93
REMARK   42  A    between atoms: _93  and  _94
REMARK   43  A    between atoms: _97  and  _99
REMARK   44  A    between atoms: _99  and  _100
REMARK   45  A    between atoms: _99  and  _102
REMARK   46  A    between atoms: _102  and  _103
REMARK   47  A    between atoms: _105  and  _107
REMARK   48  A    between atoms: _107  and  _108
REMARK   49  A    between atoms: _107  and  _110
REMARK   50  A    between atoms: _110  and  _111
REMARK   51  A    between atoms: _111  and  _112
REMARK   52  A    between atoms: _112  and  _113
REMARK   53  A    between atoms: _122  and  _124
REMARK   54  A    between atoms: _124  and  _125
REMARK   55  A    between atoms: _124  and  _127
REMARK   56  A    between atoms: _127  and  _128
REMARK   57  A    between atoms: _128  and  _129
REMARK   58  A    between atoms: _132  and  _134
REMARK   59  A    between atoms: _134  and  _135
REMARK   60  A    between atoms: _137  and  _139
REMARK   61  A    between atoms: _139  and  _140
REMARK   62  A    between atoms: _139  and  _142
REMARK   63  A    between atoms: _142  and  _143
REMARK   64  A    between atoms: _146  and  _148
REMARK   65  A    between atoms: _148  and  _149
REMARK   66  A    between atoms: _148  and  _151
REMARK   67  A    between atoms: _151  and  _152
REMARK   68  A    between atoms: _152  and  _153
REMARK   69  A    between atoms: _156  and  _158
REMARK   70  A    between atoms: _158  and  _159
REMARK   71  A    between atoms: _158  and  _161
REMARK   72  A    between atoms: _161  and  _162
REMARK   73  A    between atoms: _165  and  _167
REMARK   74  A    between atoms: _167  and  _168
REMARK   75  A    between atoms: _167  and  _170
REMARK   76  A    between atoms: _170  and  _171
REMARK   77  A    between atoms: _174  and  _176
REMARK   78  A    between atoms: _176  and  _177
REMARK   79  A    between atoms: _176  and  _179
REMARK   80  A    between atoms: _179  and  _180
REMARK   81  A    between atoms: _182  and  _184
REMARK   82  A    between atoms: _184  and  _185
REMARK   83  A    between atoms: _184  and  _187
REMARK   84  A    between atoms: _190  and  _192
REMARK   85  A    between atoms: _192  and  _193
REMARK   86  A    between atoms: _195  and  _197
REMARK   87  A    between atoms: _197  and  _198
REMARK   88  A    between atoms: _197  and  _200
REMARK   89  A    between atoms: _200  and  _201
REMARK   90  A    between atoms: _204  and  _206
REMARK   91  A    between atoms: _206  and  _207
REMARK   92  A    between atoms: _206  and  _209
REMARK   93  A    between atoms: _209  and  _210
REMARK   94  A    between atoms: _212  and  _214
REMARK   95  A    between atoms: _214  and  _215
REMARK   96  A    between atoms: _219  and  _220
REMARK   97  A    between atoms: _225  and  _227
REMARK   98  A    between atoms: _227  and  _228
REMARK   99  A    between atoms: _227  and  _230
REMARK  100  A    between atoms: _230  and  _231
REMARK  101  A    between atoms: _237  and  _239
REMARK  102  A    between atoms: _239  and  _240
REMARK  103  A    between atoms: _239  and  _242
REMARK  104  A    between atoms: _245  and  _247
REMARK  105  A    between atoms: _247  and  _248
REMARK  106  A    between atoms: _251  and  _253
REMARK  107  A    between atoms: _253  and  _254
REMARK  108  A    between atoms: _253  and  _256
REMARK  109  A    between atoms: _259  and  _261
REMARK  110  A    between atoms: _261  and  _262
REMARK  111  A    between atoms: _264  and  _266
REMARK  112  A    between atoms: _266  and  _267
REMARK  113  A    between atoms: _266  and  _269
REMARK  114  A    between atoms: _269  and  _270
REMARK  115  A    between atoms: _276  and  _278
REMARK  116  A    between atoms: _278  and  _279
REMARK  117  A    between atoms: _278  and  _281
REMARK  118  A    between atoms: _281  and  _282
REMARK  119  A    between atoms: _287  and  _289
REMARK  120  A    between atoms: _289  and  _290
REMARK  121  A    between atoms: _289  and  _292
REMARK  122  A    between atoms: _292  and  _293
REMARK  123  A    between atoms: _293  and  _294
REMARK  124  A    between atoms: _294  and  _295
REMARK  125  A    between atoms: _304  and  _306
REMARK  126  A    between atoms: _306  and  _307
REMARK  127  A    between atoms: _306  and  _309
REMARK  128  A    between atoms: _309  and  _310
REMARK  129  A    between atoms: _316  and  _318
REMARK  130  A    between atoms: _318  and  _319
REMARK  131  A    between atoms: _321  and  _323
REMARK  132  A    between atoms: _323  and  _324
REMARK  133  A    between atoms: _323  and  _326
REMARK  134  A    between atoms: _326  and  _327
REMARK  135  A    between atoms: _329  and  _331
REMARK  136  A    between atoms: _331  and  _332
REMARK  137  A    between atoms: _331  and  _334
REMARK  138  A    between atoms: _334  and  _335
REMARK  139  A    between atoms: _337  and  _339
REMARK  140  A    between atoms: _339  and  _340
REMARK  141  A    between atoms: _339  and  _342
REMARK  142  A    between atoms: _342  and  _343
REMARK  143  A    between atoms: _343  and  _344
REMARK  144  A    between atoms: _344  and  _345
REMARK  145  A    between atoms: _354  and  _356
REMARK  146  A    between atoms: _356  and  _357
REMARK  147  A    between atoms: _356  and  _359
REMARK  148  A    between atoms: _359  and  _360
REMARK  149  A    between atoms: _360  and  _361
REMARK  150  A    between atoms: _363  and  _365
REMARK  151  A    between atoms: _365  and  _366
REMARK  152  A    between atoms: _368  and  _370
REMARK  153  A    between atoms: _370  and  _371
REMARK  154  A    between atoms: _373  and  _375
REMARK  155  A    between atoms: _375  and  _376
REMARK  156  A    between atoms: _375  and  _378
REMARK  157  A    between atoms: _378  and  _379
REMARK  158  A    between atoms: _382  and  _384
REMARK  159  A    between atoms: _384  and  _385
REMARK  160  A    between atoms: _384  and  _387
REMARK  161  A    between atoms: _390  and  _392
REMARK  162  A    between atoms: _392  and  _393
REMARK  163  A    between atoms: _392  and  _395
REMARK  164  A    between atoms: _395  and  _396
REMARK  165  A    between atoms: _396  and  _397
REMARK  166  A    between atoms: _400  and  _402
REMARK  167  A    between atoms: _402  and  _403
REMARK  168  A    between atoms: _402  and  _405
REMARK  169  A    between atoms: _405  and  _406
REMARK  170  A    between atoms: _411  and  _413
REMARK  171  A    between atoms: _413  and  _414
REMARK  172  A    between atoms: _413  and  _416
REMARK  173  A    between atoms: _416  and  _417
REMARK  174  A    between atoms: _420  and  _422
REMARK  175  A    between atoms: _422  and  _423
REMARK  176  A    between atoms: _422  and  _425
REMARK  177  A    between atoms: _425  and  _426
REMARK  178  A    between atoms: _426  and  _427
REMARK  179  A    between atoms: _429  and  _431
REMARK  180  A    between atoms: _431  and  _432
REMARK  181  A    between atoms: _431  and  _434
REMARK  182  A    between atoms: _434  and  _435
REMARK  183  A    between atoms: _438  and  _440
REMARK  184  A    between atoms: _440  and  _441
REMARK  185  A    between atoms: _440  and  _443
REMARK  186  A    between atoms: _443  and  _444
REMARK  187  A    between atoms: _444  and  _445
REMARK  188  A    between atoms: _445  and  _446
REMARK  189  A    between atoms: _455  and  _457
REMARK  190  A    between atoms: _457  and  _458
REMARK  191  A    between atoms: _457  and  _460
REMARK  192  A    between atoms: _460  and  _461
REMARK  193  A    between atoms: _463  and  _465
REMARK  194  A    between atoms: _465  and  _466
REMARK  195  A    between atoms: _465  and  _468
REMARK  196  A    between atoms: _468  and  _469
REMARK  197  A    between atoms: _474  and  _476
REMARK  198  A    between atoms: _476  and  _477
REMARK  199  A    between atoms: _476  and  _479
REMARK  200  A    between atoms: _479  and  _480
REMARK  201  A    between atoms: _482  and  _484
REMARK  202  A    between atoms: _484  and  _485
REMARK  203  A    between atoms: _484  and  _487
REMARK  204  A    between atoms: _487  and  _488
REMARK  205  A    between atoms: _488  and  _489
REMARK  206  A    between atoms: _489  and  _490
REMARK  207  A    between atoms: _490  and  _491
REMARK  208  A    between atoms: _495  and  _497
REMARK  209  A    between atoms: _497  and  _498
REMARK  210  A    between atoms: _497  and  _500
REMARK  211  A    between atoms: _500  and  _501
REMARK  212  A    between atoms: _504  and  _506
REMARK  213  A    between atoms: _506  and  _507
REMARK  214  A    between atoms: _506  and  _509
REMARK  215  A    between atoms: _509  and  _510
REMARK  216  A    between atoms: _516  and  _518
REMARK  217  A    between atoms: _518  and  _519
REMARK  218  A    between atoms: _518  and  _521
REMARK  219  A    between atoms: _521  and  _522
REMARK  220  A    between atoms: _522  and  _523
REMARK  221  A    between atoms: _523  and  _524
REMARK                            x       y       z     vdW  Elec       q    Type
REMARK                         _______ _______ _______ _____ _____    ______ ____
ROOT
ATOM      1  O   HOH     1      54.286  33.054  15.663  0.00  0.00    +0.000 OA
ENDROOT
TORSDOF 0
REMARK  Name = ../refined-set-2016/4bb9/4bb9_pocket.pdb
REMARK  221 active torsions:
REMARK  status: ('A' for Active; 'I' for Inactive)
REMARK    1  A    between atoms: _1  and  _3
REMARK    2  A    between atoms: _3  and  _4
REMARK    3  A    between atoms: _3  and  _6
REMARK    4  A    between atoms: _6  and  _7
REMARK    5  A    between atoms: _10  and  _12
REMARK    6  A    between atoms: _12  and  _13
REMARK    7  A    between atoms: _12  and  _15
REMARK    8  A    between atoms: _15  and  _16
REMARK    9  A    between atoms: _16  and  _17
REMARK   10  A    between atoms: _20  and  _22
REMARK   11  A    between atoms: _22  and  _23
REMARK   12  A    between atoms: _22  and  _25
REMARK   13  A    between atoms: _25  and  _26
REMARK   14  A    between atoms: _28  and  _30
REMARK   15  A    between atoms: _30  and  _31
REMARK   16  A    between atoms: _33  and  _35
REMARK   17  A    between atoms: _35  and  _36
REMARK   18  A    between atoms: _38  and  _40
REMARK   19  A    between atoms: _40  and  _41
REMARK   20  A    between atoms: _43  and  _45
REMARK   21  A    between atoms: _45  and  _46
REMARK   22  A    between atoms: _45  and  _48
REMARK   23  A    between atoms: _48  and  _49
REMARK   24  A    between atoms: _52  and  _54
REMARK   25  A    between atoms: _54  and  _55
REMARK   26  A    between atoms: _54  and  _57
REMARK   27  A    between atoms: _57  and  _58
REMARK   28  A    between atoms: _60  and  _62
REMARK   29  A    between atoms: _62  and  _63
REMARK   30  A    between atoms: _65  and  _67
REMARK   31  A    between atoms: _67  and  _68
REMARK   32  A    between atoms: _67  and  _70
REMARK   33  A    between atoms: _70  and  _71
REMARK   34  A    between atoms: _71  and  _72
REMARK   35  A    between atoms: _72  and  _73
REMARK   36  A    between atoms: _82  and  _84
REMARK   37  A    between atoms: _84  and  _85
REMARK   38  A    between atoms: _84  and  _87
REMARK   39  A    between atoms: _87  and  _88
REMARK   40  A    between atoms: _88  and  _89
REMARK   41  A    between atoms: _91  and  _93
REMARK   42  A    between atoms: _93  and  _94
REMARK   43  A    between atoms: _97  and  _99
REMARK   44  A    between atoms: _99  and  _100
REMARK   45  A    between atoms: _99  and  _102
REMARK   46  A    between atoms: _102  and  _103
REMARK   47  A    between atoms: _105  and  _107
REMARK   48  A    between atoms: _107  and  _108
REMARK   49  A    between atoms: _107  and  _110
REMARK   50  A    between atoms: _110  and  _111
REMARK   51  A    between atoms: _111  and  _112
REMARK   52  A    between atoms: _112  and  _113
REMARK   53  A    between atoms: _122  and  _124
REMARK   54  A    between atoms: _124  and  _125
REMARK   55  A    between atoms: _124  and  _127
REMARK   56  A    between atoms: _127  and  _128
REMARK   57  A    between atoms: _128  and  _129
REMARK   58  A    between atoms: _132  and  _134
REMARK   59  A    between atoms: _134  and  _135
REMARK   60  A    between atoms: _137  and  _139
REMARK   61  A    between atoms: _139  and  _140
REMARK   62  A    between atoms: _139  and  _142
REMARK   63  A    between atoms: _142  and  _143
REMARK   64  A    between atoms: _146  and  _148
REMARK   65  A    between atoms: _148  and  _149
REMARK   66  A    between atoms: _148  and  _151
REMARK   67  A    between atoms: _151  and  _152
REMARK   68  A    between atoms: _152  and  _153
REMARK   69  A    between atoms: _156  and  _158
REMARK   70  A    between atoms: _158  and  _159
REMARK   71  A    between atoms: _158  and  _161
REMARK   72  A    between atoms: _161  and  _162
REMARK   73  A    between atoms: _165  and  _167
REMARK   74  A    between atoms: _167  and  _168
REMARK   75  A    between atoms: _167  and  _170
REMARK   76  A    between atoms: _170  and  _171
REMARK   77  A    between atoms: _174  and  _176
REMARK   78  A    between atoms: _176  and  _177
REMARK   79  A    between atoms: _176  and  _179
REMARK   80  A    between atoms: _179  and  _180
REMARK   81  A    between atoms: _182  and  _184
REMARK   82  A    between atoms: _184  and  _185
REMARK   83  A    between atoms: _184  and  _187
REMARK   84  A    between atoms: _190  and  _192
REMARK   85  A    between atoms: _192  and  _193
REMARK   86  A    between atoms: _195  and  _197
REMARK   87  A    between atoms: _197  and  _198
REMARK   88  A    between atoms: _197  and  _200
REMARK   89  A    between atoms: _200  and  _201
REMARK   90  A    between atoms: _204  and  _206
REMARK   91  A    between atoms: _206  and  _207
REMARK   92  A    between atoms: _206  and  _209
REMARK   93  A    between atoms: _209  and  _210
REMARK   94  A    between atoms: _212  and  _214
REMARK   95  A    between atoms: _214  and  _215
REMARK   96  A    between atoms: _219  and  _220
REMARK   97  A    between atoms: _225  and  _227
REMARK   98  A    between atoms: _227  and  _228
REMARK   99  A    between atoms: _227  and  _230
REMARK  100  A    between atoms: _230  and  _231
REMARK  101  A    between atoms: _237  and  _239
REMARK  102  A    between atoms: _239  and  _240
REMARK  103  A    between atoms: _239  and  _242
REMARK  104  A    between atoms: _245  and  _247
REMARK  105  A    between atoms: _247  and  _248
REMARK  106  A    between atoms: _251  and  _253
REMARK  107  A    between atoms: _253  and  _254
REMARK  108  A    between atoms: _253  and  _256
REMARK  109  A    between atoms: _259  and  _261
REMARK  110  A    between atoms: _261  and  _262
REMARK  111  A    between atoms: _264  and  _266
REMARK  112  A    between atoms: _266  and  _267
REMARK  113  A    between atoms: _266  and  _269
REMARK  114  A    between atoms: _269  and  _270
REMARK  115  A    between atoms: _276  and  _278
REMARK  116  A    between atoms: _278  and  _279
REMARK  117  A    between atoms: _278  and  _281
REMARK  118  A    between atoms: _281  and  _282
REMARK  119  A    between atoms: _287  and  _289
REMARK  120  A    between atoms: _289  and  _290
REMARK  121  A    between atoms: _289  and  _292
REMARK  122  A    between atoms: _292  and  _293
REMARK  123  A    between atoms: _293  and  _294
REMARK  124  A    between atoms: _294  and  _295
REMARK  125  A    between atoms: _304  and  _306
REMARK  126  A    between atoms: _306  and  _307
REMARK  127  A    between atoms: _306  and  _309
REMARK  128  A    between atoms: _309  and  _310
REMARK  129  A    between atoms: _316  and  _318
REMARK  130  A    between atoms: _318  and  _319
REMARK  131  A    between atoms: _321  and  _323
REMARK  132  A    between atoms: _323  and  _324
REMARK  133  A    between atoms: _323  and  _326
REMARK  134  A    between atoms: _326  and  _327
REMARK  135  A    between atoms: _329  and  _331
REMARK  136  A    between atoms: _331  and  _332
REMARK  137  A    between atoms: _331  and  _334
REMARK  138  A    between atoms: _334  and  _335
REMARK  139  A    between atoms: _337  and  _339
REMARK  140  A    between atoms: _339  and  _340
REMARK  141  A    between atoms: _339  and  _342
REMARK  142  A    between atoms: _342  and  _343
REMARK  143  A    between atoms: _343  and  _344
REMARK  144  A    between atoms: _344  and  _345
REMARK  145  A    between atoms: _354  and  _356
REMARK  146  A    between atoms: _356  and  _357
REMARK  147  A    between atoms: _356  and  _359
REMARK  148  A    between atoms: _359  and  _360
REMARK  149  A    between atoms: _360  and  _361
REMARK  150  A    between atoms: _363  and  _365
REMARK  151  A    between atoms: _365  and  _366
REMARK  152  A    between atoms: _368  and  _370
REMARK  153  A    between atoms: _370  and  _371
REMARK  154  A    between atoms: _373  and  _375
REMARK  155  A    between atoms: _375  and  _376
REMARK  156  A    between atoms: _375  and  _378
REMARK  157  A    between atoms: _378  and  _379
REMARK  158  A    between atoms: _382  and  _384
REMARK  159  A    between atoms: _384  and  _385
REMARK  160  A    between atoms: _384  and  _387
REMARK  161  A    between atoms: _390  and  _392
REMARK  162  A    between atoms: _392  and  _393
REMARK  163  A    between atoms: _392  and  _395
REMARK  164  A    between atoms: _395  and  _396
REMARK  165  A    between atoms: _396  and  _397
REMARK  166  A    between atoms: _400  and  _402
REMARK  167  A    between atoms: _402  and  _403
REMARK  168  A    between atoms: _402  and  _405
REMARK  169  A    between atoms: _405  and  _406
REMARK  170  A    between atoms: _411  and  _413
REMARK  171  A    between atoms: _413  and  _414
REMARK  172  A    between atoms: _413  and  _416
REMARK  173  A    between atoms: _416  and  _417
REMARK  174  A    between atoms: _420  and  _422
REMARK  175  A    between atoms: _422  and  _423
REMARK  176  A    between atoms: _422  and  _425
REMARK  177  A    between atoms: _425  and  _426
REMARK  178  A    between atoms: _426  and  _427
REMARK  179  A    between atoms: _429  and  _431
REMARK  180  A    between atoms: _431  and  _432
REMARK  181  A    between atoms: _431  and  _434
REMARK  182  A    between atoms: _434  and  _435
REMARK  183  A    between atoms: _438  and  _440
REMARK  184  A    between atoms: _440  and  _441
REMARK  185  A    between atoms: _440  and  _443
REMARK  186  A    between atoms: _443  and  _444
REMARK  187  A    between atoms: _444  and  _445
REMARK  188  A    between atoms: _445  and  _446
REMARK  189  A    between atoms: _455  and  _457
REMARK  190  A    between atoms: _457  and  _458
REMARK  191  A    between atoms: _457  and  _460
REMARK  192  A    between atoms: _460  and  _461
REMARK  193  A    between atoms: _463  and  _465
REMARK  194  A    between atoms: _465  and  _466
REMARK  195  A    between atoms: _465  and  _468
REMARK  196  A    between atoms: _468  and  _469
REMARK  197  A    between atoms: _474  and  _476
REMARK  198  A    between atoms: _476  and  _477
REMARK  199  A    between atoms: _476  and  _479
REMARK  200  A    between atoms: _479  and  _480
REMARK  201  A    between atoms: _482  and  _484
REMARK  202  A    between atoms: _484  and  _485
REMARK  203  A    between atoms: _484  and  _487
REMARK  204  A    between atoms: _487  and  _488
REMARK  205  A    between atoms: _488  and  _489
REMARK  206  A    between atoms: _489  and  _490
REMARK  207  A    between atoms: _490  and  _491
REMARK  208  A    between atoms: _495  and  _497
REMARK  209  A    between atoms: _497  and  _498
REMARK  210  A    between atoms: _497  and  _500
REMARK  211  A    between atoms: _500  and  _501
REMARK  212  A    between atoms: _504  and  _506
REMARK  213  A    between atoms: _506  and  _507
REMARK  214  A    between atoms: _506  and  _509
REMARK  215  A    between atoms: _509  and  _510
REMARK  216  A    between atoms: _516  and  _518
REMARK  217  A    between atoms: _518  and  _519
REMARK  218  A    between atoms: _518  and  _521
REMARK  219  A    between atoms: _521  and  _522
REMARK  220  A    between atoms: _522  and  _523
REMARK  221  A    between atoms: _523  and  _524
REMARK                            x       y       z     vdW  Elec       q    Type
REMARK                         _______ _______ _______ _____ _____    ______ ____
ROOT
ATOM      1  O   HOH     1      50.231  35.367   9.790  0.00  0.00    +0.000 OA
ENDROOT
TORSDOF 0
REMARK  Name = ../refined-set-2016/4bb9/4bb9_pocket.pdb
REMARK  221 active torsions:
REMARK  status: ('A' for Active; 'I' for Inactive)
REMARK    1  A    between atoms: _1  and  _3
REMARK    2  A    between atoms: _3  and  _4
REMARK    3  A    between atoms: _3  and  _6
REMARK    4  A    between atoms: _6  and  _7
REMARK    5  A    between atoms: _10  and  _12
REMARK    6  A    between atoms: _12  and  _13
REMARK    7  A    between atoms: _12  and  _15
REMARK    8  A    between atoms: _15  and  _16
REMARK    9  A    between atoms: _16  and  _17
REMARK   10  A    between atoms: _20  and  _22
REMARK   11  A    between atoms: _22  and  _23
REMARK   12  A    between atoms: _22  and  _25
REMARK   13  A    between atoms: _25  and  _26
REMARK   14  A    between atoms: _28  and  _30
REMARK   15  A    between atoms: _30  and  _31
REMARK   16  A    between atoms: _33  and  _35
REMARK   17  A    between atoms: _35  and  _36
REMARK   18  A    between atoms: _38  and  _40
REMARK   19  A    between atoms: _40  and  _41
REMARK   20  A    between atoms: _43  and  _45
REMARK   21  A    between atoms: _45  and  _46
REMARK   22  A    between atoms: _45  and  _48
REMARK   23  A    between atoms: _48  and  _49
REMARK   24  A    between atoms: _52  and  _54
REMARK   25  A    between atoms: _54  and  _55
REMARK   26  A    between atoms: _54  and  _57
REMARK   27  A    between atoms: _57  and  _58
REMARK   28  A    between atoms: _60  and  _62
REMARK   29  A    between atoms: _62  and  _63
REMARK   30  A    between atoms: _65  and  _67
REMARK   31  A    between atoms: _67  and  _68
REMARK   32  A    between atoms: _67  and  _70
REMARK   33  A    between atoms: _70  and  _71
REMARK   34  A    between atoms: _71  and  _72
REMARK   35  A    between atoms: _72  and  _73
REMARK   36  A    between atoms: _82  and  _84
REMARK   37  A    between atoms: _84  and  _85
REMARK   38  A    between atoms: _84  and  _87
REMARK   39  A    between atoms: _87  and  _88
REMARK   40  A    between atoms: _88  and  _89
REMARK   41  A    between atoms: _91  and  _93
REMARK   42  A    between atoms: _93  and  _94
REMARK   43  A    between atoms: _97  and  _99
REMARK   44  A    between atoms: _99  and  _100
REMARK   45  A    between atoms: _99  and  _102
REMARK   46  A    between atoms: _102  and  _103
REMARK   47  A    between atoms: _105  and  _107
REMARK   48  A    between atoms: _107  and  _108
REMARK   49  A    between atoms: _107  and  _110
REMARK   50  A    between atoms: _110  and  _111
REMARK   51  A    between atoms: _111  and  _112
REMARK   52  A    between atoms: _112  and  _113
REMARK   53  A    between atoms: _122  and  _124
REMARK   54  A    between atoms: _124  and  _125
REMARK   55  A    between atoms: _124  and  _127
REMARK   56  A    between atoms: _127  and  _128
REMARK   57  A    between atoms: _128  and  _129
REMARK   58  A    between atoms: _132  and  _134
REMARK   59  A    between atoms: _134  and  _135
REMARK   60  A    between atoms: _137  and  _139
REMARK   61  A    between atoms: _139  and  _140
REMARK   62  A    between atoms: _139  and  _142
REMARK   63  A    between atoms: _142  and  _143
REMARK   64  A    between atoms: _146  and  _148
REMARK   65  A    between atoms: _148  and  _149
REMARK   66  A    between atoms: _148  and  _151
REMARK   67  A    between atoms: _151  and  _152
REMARK   68  A    between atoms: _152  and  _153
REMARK   69  A    between atoms: _156  and  _158
REMARK   70  A    between atoms: _158  and  _159
REMARK   71  A    between atoms: _158  and  _161
REMARK   72  A    between atoms: _161  and  _162
REMARK   73  A    between atoms: _165  and  _167
REMARK   74  A    between atoms: _167  and  _168
REMARK   75  A    between atoms: _167  and  _170
REMARK   76  A    between atoms: _170  and  _171
REMARK   77  A    between atoms: _174  and  _176
REMARK   78  A    between atoms: _176  and  _177
REMARK   79  A    between atoms: _176  and  _179
REMARK   80  A    between atoms: _179  and  _180
REMARK   81  A    between atoms: _182  and  _184
REMARK   82  A    between atoms: _184  and  _185
REMARK   83  A    between atoms: _184  and  _187
REMARK   84  A    between atoms: _190  and  _192
REMARK   85  A    between atoms: _192  and  _193
REMARK   86  A    between atoms: _195  and  _197
REMARK   87  A    between atoms: _197  and  _198
REMARK   88  A    between atoms: _197  and  _200
REMARK   89  A    between atoms: _200  and  _201
REMARK   90  A    between atoms: _204  and  _206
REMARK   91  A    between atoms: _206  and  _207
REMARK   92  A    between atoms: _206  and  _209
REMARK   93  A    between atoms: _209  and  _210
REMARK   94  A    between atoms: _212  and  _214
REMARK   95  A    between atoms: _214  and  _215
REMARK   96  A    between atoms: _219  and  _220
REMARK   97  A    between atoms: _225  and  _227
REMARK   98  A    between atoms: _227  and  _228
REMARK   99  A    between atoms: _227  and  _230
REMARK  100  A    between atoms: _230  and  _231
REMARK  101  A    between atoms: _237  and  _239
REMARK  102  A    between atoms: _239  and  _240
REMARK  103  A    between atoms: _239  and  _242
REMARK  104  A    between atoms: _245  and  _247
REMARK  105  A    between atoms: _247  and  _248
REMARK  106  A    between atoms: _251  and  _253
REMARK  107  A    between atoms: _253  and  _254
REMARK  108  A    between atoms: _253  and  _256
REMARK  109  A    between atoms: _259  and  _261
REMARK  110  A    between atoms: _261  and  _262
REMARK  111  A    between atoms: _264  and  _266
REMARK  112  A    between atoms: _266  and  _267
REMARK  113  A    between atoms: _266  and  _269
REMARK  114  A    between atoms: _269  and  _270
REMARK  115  A    between atoms: _276  and  _278
REMARK  116  A    between atoms: _278  and  _279
REMARK  117  A    between atoms: _278  and  _281
REMARK  118  A    between atoms: _281  and  _282
REMARK  119  A    between atoms: _287  and  _289
REMARK  120  A    between atoms: _289  and  _290
REMARK  121  A    between atoms: _289  and  _292
REMARK  122  A    between atoms: _292  and  _293
REMARK  123  A    between atoms: _293  and  _294
REMARK  124  A    between atoms: _294  and  _295
REMARK  125  A    between atoms: _304  and  _306
REMARK  126  A    between atoms: _306  and  _307
REMARK  127  A    between atoms: _306  and  _309
REMARK  128  A    between atoms: _309  and  _310
REMARK  129  A    between atoms: _316  and  _318
REMARK  130  A    between atoms: _318  and  _319
REMARK  131  A    between atoms: _321  and  _323
REMARK  132  A    between atoms: _323  and  _324
REMARK  133  A    between atoms: _323  and  _326
REMARK  134  A    between atoms: _326  and  _327
REMARK  135  A    between atoms: _329  and  _331
REMARK  136  A    between atoms: _331  and  _332
REMARK  137  A    between atoms: _331  and  _334
REMARK  138  A    between atoms: _334  and  _335
REMARK  139  A    between atoms: _337  and  _339
REMARK  140  A    between atoms: _339  and  _340
REMARK  141  A    between atoms: _339  and  _342
REMARK  142  A    between atoms: _342  and  _343
REMARK  143  A    between atoms: _343  and  _344
REMARK  144  A    between atoms: _344  and  _345
REMARK  145  A    between atoms: _354  and  _356
REMARK  146  A    between atoms: _356  and  _357
REMARK  147  A    between atoms: _356  and  _359
REMARK  148  A    between atoms: _359  and  _360
REMARK  149  A    between atoms: _360  and  _361
REMARK  150  A    between atoms: _363  and  _365
REMARK  151  A    between atoms: _365  and  _366
REMARK  152  A    between atoms: _368  and  _370
REMARK  153  A    between atoms: _370  and  _371
REMARK  154  A    between atoms: _373  and  _375
REMARK  155  A    between atoms: _375  and  _376
REMARK  156  A    between atoms: _375  and  _378
REMARK  157  A    between atoms: _378  and  _379
REMARK  158  A    between atoms: _382  and  _384
REMARK  159  A    between atoms: _384  and  _385
REMARK  160  A    between atoms: _384  and  _387
REMARK  161  A    between atoms: _390  and  _392
REMARK  162  A    between atoms: _392  and  _393
REMARK  163  A    between atoms: _392  and  _395
REMARK  164  A    between atoms: _395  and  _396
REMARK  165  A    between atoms: _396  and  _397
REMARK  166  A    between atoms: _400  and  _402
REMARK  167  A    between atoms: _402  and  _403
REMARK  168  A    between atoms: _402  and  _405
REMARK  169  A    between atoms: _405  and  _406
REMARK  170  A    between atoms: _411  and  _413
REMARK  171  A    between atoms: _413  and  _414
REMARK  172  A    between atoms: _413  and  _416
REMARK  173  A    between atoms: _416  and  _417
REMARK  174  A    between atoms: _420  and  _422
REMARK  175  A    between atoms: _422  and  _423
REMARK  176  A    between atoms: _422  and  _425
REMARK  177  A    between atoms: _425  and  _426
REMARK  178  A    between atoms: _426  and  _427
REMARK  179  A    between atoms: _429  and  _431
REMARK  180  A    between atoms: _431  and  _432
REMARK  181  A    between atoms: _431  and  _434
REMARK  182  A    between atoms: _434  and  _435
REMARK  183  A    between atoms: _438  and  _440
REMARK  184  A    between atoms: _440  and  _441
REMARK  185  A    between atoms: _440  and  _443
REMARK  186  A    between atoms: _443  and  _444
REMARK  187  A    between atoms: _444  and  _445
REMARK  188  A    between atoms: _445  and  _446
REMARK  189  A    between atoms: _455  and  _457
REMARK  190  A    between atoms: _457  and  _458
REMARK  191  A    between atoms: _457  and  _460
REMARK  192  A    between atoms: _460  and  _461
REMARK  193  A    between atoms: _463  and  _465
REMARK  194  A    between atoms: _465  and  _466
REMARK  195  A    between atoms: _465  and  _468
REMARK  196  A    between atoms: _468  and  _469
REMARK  197  A    between atoms: _474  and  _476
REMARK  198  A    between atoms: _476  and  _477
REMARK  199  A    between atoms: _476  and  _479
REMARK  200  A    between atoms: _479  and  _480
REMARK  201  A    between atoms: _482  and  _484
REMARK  202  A    between atoms: _484  and  _485
REMARK  203  A    between atoms: _484  and  _487
REMARK  204  A    between atoms: _487  and  _488
REMARK  205  A    between atoms: _488  and  _489
REMARK  206  A    between atoms: _489  and  _490
REMARK  207  A    between atoms: _490  and  _491
REMARK  208  A    between atoms: _495  and  _497
REMARK  209  A    between atoms: _497  and  _498
REMARK  210  A    between atoms: _497  and  _500
REMARK  211  A    between atoms: _500  and  _501
REMARK  212  A    between atoms: _504  and  _506
REMARK  213  A    between atoms: _506  and  _507
REMARK  214  A    between atoms: _506  and  _509
REMARK  215  A    between atoms: _509  and  _510
REMARK  216  A    between atoms: _516  and  _518
REMARK  217  A    between atoms: _518  and  _519
REMARK  218  A    between atoms: _518  and  _521
REMARK  219  A    between atoms: _521  and  _522
REMARK  220  A    between atoms: _522  and  _523
REMARK  221  A    between atoms: _523  and  _524
REMARK                            x       y       z     vdW  Elec       q    Type
REMARK                         _______ _______ _______ _____ _____    ______ ____
ROOT
ATOM      1  O   HOH     1      50.775  32.821  10.328  0.00  0.00    +0.000 OA
ENDROOT
TORSDOF 0
REMARK  Name = ../refined-set-2016/4bb9/4bb9_pocket.pdb
REMARK  221 active torsions:
REMARK  status: ('A' for Active; 'I' for Inactive)
REMARK    1  A    between atoms: _1  and  _3
REMARK    2  A    between atoms: _3  and  _4
REMARK    3  A    between atoms: _3  and  _6
REMARK    4  A    between atoms: _6  and  _7
REMARK    5  A    between atoms: _10  and  _12
REMARK    6  A    between atoms: _12  and  _13
REMARK    7  A    between atoms: _12  and  _15
REMARK    8  A    between atoms: _15  and  _16
REMARK    9  A    between atoms: _16  and  _17
REMARK   10  A    between atoms: _20  and  _22
REMARK   11  A    between atoms: _22  and  _23
REMARK   12  A    between atoms: _22  and  _25
REMARK   13  A    between atoms: _25  and  _26
REMARK   14  A    between atoms: _28  and  _30
REMARK   15  A    between atoms: _30  and  _31
REMARK   16  A    between atoms: _33  and  _35
REMARK   17  A    between atoms: _35  and  _36
REMARK   18  A    between atoms: _38  and  _40
REMARK   19  A    between atoms: _40  and  _41
REMARK   20  A    between atoms: _43  and  _45
REMARK   21  A    between atoms: _45  and  _46
REMARK   22  A    between atoms: _45  and  _48
REMARK   23  A    between atoms: _48  and  _49
REMARK   24  A    between atoms: _52  and  _54
REMARK   25  A    between atoms: _54  and  _55
REMARK   26  A    between atoms: _54  and  _57
REMARK   27  A    between atoms: _57  and  _58
REMARK   28  A    between atoms: _60  and  _62
REMARK   29  A    between atoms: _62  and  _63
REMARK   30  A    between atoms: _65  and  _67
REMARK   31  A    between atoms: _67  and  _68
REMARK   32  A    between atoms: _67  and  _70
REMARK   33  A    between atoms: _70  and  _71
REMARK   34  A    between atoms: _71  and  _72
REMARK   35  A    between atoms: _72  and  _73
REMARK   36  A    between atoms: _82  and  _84
REMARK   37  A    between atoms: _84  and  _85
REMARK   38  A    between atoms: _84  and  _87
REMARK   39  A    between atoms: _87  and  _88
REMARK   40  A    between atoms: _88  and  _89
REMARK   41  A    between atoms: _91  and  _93
REMARK   42  A    between atoms: _93  and  _94
REMARK   43  A    between atoms: _97  and  _99
REMARK   44  A    between atoms: _99  and  _100
REMARK   45  A    between atoms: _99  and  _102
REMARK   46  A    between atoms: _102  and  _103
REMARK   47  A    between atoms: _105  and  _107
REMARK   48  A    between atoms: _107  and  _108
REMARK   49  A    between atoms: _107  and  _110
REMARK   50  A    between atoms: _110  and  _111
REMARK   51  A    between atoms: _111  and  _112
REMARK   52  A    between atoms: _112  and  _113
REMARK   53  A    between atoms: _122  and  _124
REMARK   54  A    between atoms: _124  and  _125
REMARK   55  A    between atoms: _124  and  _127
REMARK   56  A    between atoms: _127  and  _128
REMARK   57  A    between atoms: _128  and  _129
REMARK   58  A    between atoms: _132  and  _134
REMARK   59  A    between atoms: _134  and  _135
REMARK   60  A    between atoms: _137  and  _139
REMARK   61  A    between atoms: _139  and  _140
REMARK   62  A    between atoms: _139  and  _142
REMARK   63  A    between atoms: _142  and  _143
REMARK   64  A    between atoms: _146  and  _148
REMARK   65  A    between atoms: _148  and  _149
REMARK   66  A    between atoms: _148  and  _151
REMARK   67  A    between atoms: _151  and  _152
REMARK   68  A    between atoms: _152  and  _153
REMARK   69  A    between atoms: _156  and  _158
REMARK   70  A    between atoms: _158  and  _159
REMARK   71  A    between atoms: _158  and  _161
REMARK   72  A    between atoms: _161  and  _162
REMARK   73  A    between atoms: _165  and  _167
REMARK   74  A    between atoms: _167  and  _168
REMARK   75  A    between atoms: _167  and  _170
REMARK   76  A    between atoms: _170  and  _171
REMARK   77  A    between atoms: _174  and  _176
REMARK   78  A    between atoms: _176  and  _177
REMARK   79  A    between atoms: _176  and  _179
REMARK   80  A    between atoms: _179  and  _180
REMARK   81  A    between atoms: _182  and  _184
REMARK   82  A    between atoms: _184  and  _185
REMARK   83  A    between atoms: _184  and  _187
REMARK   84  A    between atoms: _190  and  _192
REMARK   85  A    between atoms: _192  and  _193
REMARK   86  A    between atoms: _195  and  _197
REMARK   87  A    between atoms: _197  and  _198
REMARK   88  A    between atoms: _197  and  _200
REMARK   89  A    between atoms: _200  and  _201
REMARK   90  A    between atoms: _204  and  _206
REMARK   91  A    between atoms: _206  and  _207
REMARK   92  A    between atoms: _206  and  _209
REMARK   93  A    between atoms: _209  and  _210
REMARK   94  A    between atoms: _212  and  _214
REMARK   95  A    between atoms: _214  and  _215
REMARK   96  A    between atoms: _219  and  _220
REMARK   97  A    between atoms: _225  and  _227
REMARK   98  A    between atoms: _227  and  _228
REMARK   99  A    between atoms: _227  and  _230
REMARK  100  A    between atoms: _230  and  _231
REMARK  101  A    between atoms: _237  and  _239
REMARK  102  A    between atoms: _239  and  _240
REMARK  103  A    between atoms: _239  and  _242
REMARK  104  A    between atoms: _245  and  _247
REMARK  105  A    between atoms: _247  and  _248
REMARK  106  A    between atoms: _251  and  _253
REMARK  107  A    between atoms: _253  and  _254
REMARK  108  A    between atoms: _253  and  _256
REMARK  109  A    between atoms: _259  and  _261
REMARK  110  A    between atoms: _261  and  _262
REMARK  111  A    between atoms: _264  and  _266
REMARK  112  A    between atoms: _266  and  _267
REMARK  113  A    between atoms: _266  and  _269
REMARK  114  A    between atoms: _269  and  _270
REMARK  115  A    between atoms: _276  and  _278
REMARK  116  A    between atoms: _278  and  _279
REMARK  117  A    between atoms: _278  and  _281
REMARK  118  A    between atoms: _281  and  _282
REMARK  119  A    between atoms: _287  and  _289
REMARK  120  A    between atoms: _289  and  _290
REMARK  121  A    between atoms: _289  and  _292
REMARK  122  A    between atoms: _292  and  _293
REMARK  123  A    between atoms: _293  and  _294
REMARK  124  A    between atoms: _294  and  _295
REMARK  125  A    between atoms: _304  and  _306
REMARK  126  A    between atoms: _306  and  _307
REMARK  127  A    between atoms: _306  and  _309
REMARK  128  A    between atoms: _309  and  _310
REMARK  129  A    between atoms: _316  and  _318
REMARK  130  A    between atoms: _318  and  _319
REMARK  131  A    between atoms: _321  and  _323
REMARK  132  A    between atoms: _323  and  _324
REMARK  133  A    between atoms: _323  and  _326
REMARK  134  A    between atoms: _326  and  _327
REMARK  135  A    between atoms: _329  and  _331
REMARK  136  A    between atoms: _331  and  _332
REMARK  137  A    between atoms: _331  and  _334
REMARK  138  A    between atoms: _334  and  _335
REMARK  139  A    between atoms: _337  and  _339
REMARK  140  A    between atoms: _339  and  _340
REMARK  141  A    between atoms: _339  and  _342
REMARK  142  A    between atoms: _342  and  _343
REMARK  143  A    between atoms: _343  and  _344
REMARK  144  A    between atoms: _344  and  _345
REMARK  145  A    between atoms: _354  and  _356
REMARK  146  A    between atoms: _356  and  _357
REMARK  147  A    between atoms: _356  and  _359
REMARK  148  A    between atoms: _359  and  _360
REMARK  149  A    between atoms: _360  and  _361
REMARK  150  A    between atoms: _363  and  _365
REMARK  151  A    between atoms: _365  and  _366
REMARK  152  A    between atoms: _368  and  _370
REMARK  153  A    between atoms: _370  and  _371
REMARK  154  A    between atoms: _373  and  _375
REMARK  155  A    between atoms: _375  and  _376
REMARK  156  A    between atoms: _375  and  _378
REMARK  157  A    between atoms: _378  and  _379
REMARK  158  A    between atoms: _382  and  _384
REMARK  159  A    between atoms: _384  and  _385
REMARK  160  A    between atoms: _384  and  _387
REMARK  161  A    between atoms: _390  and  _392
REMARK  162  A    between atoms: _392  and  _393
REMARK  163  A    between atoms: _392  and  _395
REMARK  164  A    between atoms: _395  and  _396
REMARK  165  A    between atoms: _396  and  _397
REMARK  166  A    between atoms: _400  and  _402
REMARK  167  A    between atoms: _402  and  _403
REMARK  168  A    between atoms: _402  and  _405
REMARK  169  A    between atoms: _405  and  _406
REMARK  170  A    between atoms: _411  and  _413
REMARK  171  A    between atoms: _413  and  _414
REMARK  172  A    between atoms: _413  and  _416
REMARK  173  A    between atoms: _416  and  _417
REMARK  174  A    between atoms: _420  and  _422
REMARK  175  A    between atoms: _422  and  _423
REMARK  176  A    between atoms: _422  and  _425
REMARK  177  A    between atoms: _425  and  _426
REMARK  178  A    between atoms: _426  and  _427
REMARK  179  A    between atoms: _429  and  _431
REMARK  180  A    between atoms: _431  and  _432
REMARK  181  A    between atoms: _431  and  _434
REMARK  182  A    between atoms: _434  and  _435
REMARK  183  A    between atoms: _438  and  _440
REMARK  184  A    between atoms: _440  and  _441
REMARK  185  A    between atoms: _440  and  _443
REMARK  186  A    between atoms: _443  and  _444
REMARK  187  A    between atoms: _444  and  _445
REMARK  188  A    between atoms: _445  and  _446
REMARK  189  A    between atoms: _455  and  _457
REMARK  190  A    between atoms: _457  and  _458
REMARK  191  A    between atoms: _457  and  _460
REMARK  192  A    between atoms: _460  and  _461
REMARK  193  A    between atoms: _463  and  _465
REMARK  194  A    between atoms: _465  and  _466
REMARK  195  A    between atoms: _465  and  _468
REMARK  196  A    between atoms: _468  and  _469
REMARK  197  A    between atoms: _474  and  _476
REMARK  198  A    between atoms: _476  and  _477
REMARK  199  A    between atoms: _476  and  _479
REMARK  200  A    between atoms: _479  and  _480
REMARK  201  A    between atoms: _482  and  _484
REMARK  202  A    between atoms: _484  and  _485
REMARK  203  A    between atoms: _484  and  _487
REMARK  204  A    between atoms: _487  and  _488
REMARK  205  A    between atoms: _488  and  _489
REMARK  206  A    between atoms: _489  and  _490
REMARK  207  A    between atoms: _490  and  _491
REMARK  208  A    between atoms: _495  and  _497
REMARK  209  A    between atoms: _497  and  _498
REMARK  210  A    between atoms: _497  and  _500
REMARK  211  A    between atoms: _500  and  _501
REMARK  212  A    between atoms: _504  and  _506
REMARK  213  A    between atoms: _506  and  _507
REMARK  214  A    between atoms: _506  and  _509
REMARK  215  A    between atoms: _509  and  _510
REMARK  216  A    between atoms: _516  and  _518
REMARK  217  A    between atoms: _518  and  _519
REMARK  218  A    between atoms: _518  and  _521
REMARK  219  A    between atoms: _521  and  _522
REMARK  220  A    between atoms: _522  and  _523
REMARK  221  A    between atoms: _523  and  _524
REMARK                            x       y       z     vdW  Elec       q    Type
REMARK                         _______ _______ _______ _____ _____    ______ ____
ROOT
ATOM      1  O   HOH     1      44.830  38.584  16.228  0.00  0.00    +0.000 OA
ENDROOT
TORSDOF 0
REMARK  Name = ../refined-set-2016/4bb9/4bb9_pocket.pdb
REMARK  221 active torsions:
REMARK  status: ('A' for Active; 'I' for Inactive)
REMARK    1  A    between atoms: _1  and  _3
REMARK    2  A    between atoms: _3  and  _4
REMARK    3  A    between atoms: _3  and  _6
REMARK    4  A    between atoms: _6  and  _7
REMARK    5  A    between atoms: _10  and  _12
REMARK    6  A    between atoms: _12  and  _13
REMARK    7  A    between atoms: _12  and  _15
REMARK    8  A    between atoms: _15  and  _16
REMARK    9  A    between atoms: _16  and  _17
REMARK   10  A    between atoms: _20  and  _22
REMARK   11  A    between atoms: _22  and  _23
REMARK   12  A    between atoms: _22  and  _25
REMARK   13  A    between atoms: _25  and  _26
REMARK   14  A    between atoms: _28  and  _30
REMARK   15  A    between atoms: _30  and  _31
REMARK   16  A    between atoms: _33  and  _35
REMARK   17  A    between atoms: _35  and  _36
REMARK   18  A    between atoms: _38  and  _40
REMARK   19  A    between atoms: _40  and  _41
REMARK   20  A    between atoms: _43  and  _45
REMARK   21  A    between atoms: _45  and  _46
REMARK   22  A    between atoms: _45  and  _48
REMARK   23  A    between atoms: _48  and  _49
REMARK   24  A    between atoms: _52  and  _54
REMARK   25  A    between atoms: _54  and  _55
REMARK   26  A    between atoms: _54  and  _57
REMARK   27  A    between atoms: _57  and  _58
REMARK   28  A    between atoms: _60  and  _62
REMARK   29  A    between atoms: _62  and  _63
REMARK   30  A    between atoms: _65  and  _67
REMARK   31  A    between atoms: _67  and  _68
REMARK   32  A    between atoms: _67  and  _70
REMARK   33  A    between atoms: _70  and  _71
REMARK   34  A    between atoms: _71  and  _72
REMARK   35  A    between atoms: _72  and  _73
REMARK   36  A    between atoms: _82  and  _84
REMARK   37  A    between atoms: _84  and  _85
REMARK   38  A    between atoms: _84  and  _87
REMARK   39  A    between atoms: _87  and  _88
REMARK   40  A    between atoms: _88  and  _89
REMARK   41  A    between atoms: _91  and  _93
REMARK   42  A    between atoms: _93  and  _94
REMARK   43  A    between atoms: _97  and  _99
REMARK   44  A    between atoms: _99  and  _100
REMARK   45  A    between atoms: _99  and  _102
REMARK   46  A    between atoms: _102  and  _103
REMARK   47  A    between atoms: _105  and  _107
REMARK   48  A    between atoms: _107  and  _108
REMARK   49  A    between atoms: _107  and  _110
REMARK   50  A    between atoms: _110  and  _111
REMARK   51  A    between atoms: _111  and  _112
REMARK   52  A    between atoms: _112  and  _113
REMARK   53  A    between atoms: _122  and  _124
REMARK   54  A    between atoms: _124  and  _125
REMARK   55  A    between atoms: _124  and  _127
REMARK   56  A    between atoms: _127  and  _128
REMARK   57  A    between atoms: _128  and  _129
REMARK   58  A    between atoms: _132  and  _134
REMARK   59  A    between atoms: _134  and  _135
REMARK   60  A    between atoms: _137  and  _139
REMARK   61  A    between atoms: _139  and  _140
REMARK   62  A    between atoms: _139  and  _142
REMARK   63  A    between atoms: _142  and  _143
REMARK   64  A    between atoms: _146  and  _148
REMARK   65  A    between atoms: _148  and  _149
REMARK   66  A    between atoms: _148  and  _151
REMARK   67  A    between atoms: _151  and  _152
REMARK   68  A    between atoms: _152  and  _153
REMARK   69  A    between atoms: _156  and  _158
REMARK   70  A    between atoms: _158  and  _159
REMARK   71  A    between atoms: _158  and  _161
REMARK   72  A    between atoms: _161  and  _162
REMARK   73  A    between atoms: _165  and  _167
REMARK   74  A    between atoms: _167  and  _168
REMARK   75  A    between atoms: _167  and  _170
REMARK   76  A    between atoms: _170  and  _171
REMARK   77  A    between atoms: _174  and  _176
REMARK   78  A    between atoms: _176  and  _177
REMARK   79  A    between atoms: _176  and  _179
REMARK   80  A    between atoms: _179  and  _180
REMARK   81  A    between atoms: _182  and  _184
REMARK   82  A    between atoms: _184  and  _185
REMARK   83  A    between atoms: _184  and  _187
REMARK   84  A    between atoms: _190  and  _192
REMARK   85  A    between atoms: _192  and  _193
REMARK   86  A    between atoms: _195  and  _197
REMARK   87  A    between atoms: _197  and  _198
REMARK   88  A    between atoms: _197  and  _200
REMARK   89  A    between atoms: _200  and  _201
REMARK   90  A    between atoms: _204  and  _206
REMARK   91  A    between atoms: _206  and  _207
REMARK   92  A    between atoms: _206  and  _209
REMARK   93  A    between atoms: _209  and  _210
REMARK   94  A    between atoms: _212  and  _214
REMARK   95  A    between atoms: _214  and  _215
REMARK   96  A    between atoms: _219  and  _220
REMARK   97  A    between atoms: _225  and  _227
REMARK   98  A    between atoms: _227  and  _228
REMARK   99  A    between atoms: _227  and  _230
REMARK  100  A    between atoms: _230  and  _231
REMARK  101  A    between atoms: _237  and  _239
REMARK  102  A    between atoms: _239  and  _240
REMARK  103  A    between atoms: _239  and  _242
REMARK  104  A    between atoms: _245  and  _247
REMARK  105  A    between atoms: _247  and  _248
REMARK  106  A    between atoms: _251  and  _253
REMARK  107  A    between atoms: _253  and  _254
REMARK  108  A    between atoms: _253  and  _256
REMARK  109  A    between atoms: _259  and  _261
REMARK  110  A    between atoms: _261  and  _262
REMARK  111  A    between atoms: _264  and  _266
REMARK  112  A    between atoms: _266  and  _267
REMARK  113  A    between atoms: _266  and  _269
REMARK  114  A    between atoms: _269  and  _270
REMARK  115  A    between atoms: _276  and  _278
REMARK  116  A    between atoms: _278  and  _279
REMARK  117  A    between atoms: _278  and  _281
REMARK  118  A    between atoms: _281  and  _282
REMARK  119  A    between atoms: _287  and  _289
REMARK  120  A    between atoms: _289  and  _290
REMARK  121  A    between atoms: _289  and  _292
REMARK  122  A    between atoms: _292  and  _293
REMARK  123  A    between atoms: _293  and  _294
REMARK  124  A    between atoms: _294  and  _295
REMARK  125  A    between atoms: _304  and  _306
REMARK  126  A    between atoms: _306  and  _307
REMARK  127  A    between atoms: _306  and  _309
REMARK  128  A    between atoms: _309  and  _310
REMARK  129  A    between atoms: _316  and  _318
REMARK  130  A    between atoms: _318  and  _319
REMARK  131  A    between atoms: _321  and  _323
REMARK  132  A    between atoms: _323  and  _324
REMARK  133  A    between atoms: _323  and  _326
REMARK  134  A    between atoms: _326  and  _327
REMARK  135  A    between atoms: _329  and  _331
REMARK  136  A    between atoms: _331  and  _332
REMARK  137  A    between atoms: _331  and  _334
REMARK  138  A    between atoms: _334  and  _335
REMARK  139  A    between atoms: _337  and  _339
REMARK  140  A    between atoms: _339  and  _340
REMARK  141  A    between atoms: _339  and  _342
REMARK  142  A    between atoms: _342  and  _343
REMARK  143  A    between atoms: _343  and  _344
REMARK  144  A    between atoms: _344  and  _345
REMARK  145  A    between atoms: _354  and  _356
REMARK  146  A    between atoms: _356  and  _357
REMARK  147  A    between atoms: _356  and  _359
REMARK  148  A    between atoms: _359  and  _360
REMARK  149  A    between atoms: _360  and  _361
REMARK  150  A    between atoms: _363  and  _365
REMARK  151  A    between atoms: _365  and  _366
REMARK  152  A    between atoms: _368  and  _370
REMARK  153  A    between atoms: _370  and  _371
REMARK  154  A    between atoms: _373  and  _375
REMARK  155  A    between atoms: _375  and  _376
REMARK  156  A    between atoms: _375  and  _378
REMARK  157  A    between atoms: _378  and  _379
REMARK  158  A    between atoms: _382  and  _384
REMARK  159  A    between atoms: _384  and  _385
REMARK  160  A    between atoms: _384  and  _387
REMARK  161  A    between atoms: _390  and  _392
REMARK  162  A    between atoms: _392  and  _393
REMARK  163  A    between atoms: _392  and  _395
REMARK  164  A    between atoms: _395  and  _396
REMARK  165  A    between atoms: _396  and  _397
REMARK  166  A    between atoms: _400  and  _402
REMARK  167  A    between atoms: _402  and  _403
REMARK  168  A    between atoms: _402  and  _405
REMARK  169  A    between atoms: _405  and  _406
REMARK  170  A    between atoms: _411  and  _413
REMARK  171  A    between atoms: _413  and  _414
REMARK  172  A    between atoms: _413  and  _416
REMARK  173  A    between atoms: _416  and  _417
REMARK  174  A    between atoms: _420  and  _422
REMARK  175  A    between atoms: _422  and  _423
REMARK  176  A    between atoms: _422  and  _425
REMARK  177  A    between atoms: _425  and  _426
REMARK  178  A    between atoms: _426  and  _427
REMARK  179  A    between atoms: _429  and  _431
REMARK  180  A    between atoms: _431  and  _432
REMARK  181  A    between atoms: _431  and  _434
REMARK  182  A    between atoms: _434  and  _435
REMARK  183  A    between atoms: _438  and  _440
REMARK  184  A    between atoms: _440  and  _441
REMARK  185  A    between atoms: _440  and  _443
REMARK  186  A    between atoms: _443  and  _444
REMARK  187  A    between atoms: _444  and  _445
REMARK  188  A    between atoms: _445  and  _446
REMARK  189  A    between atoms: _455  and  _457
REMARK  190  A    between atoms: _457  and  _458
REMARK  191  A    between atoms: _457  and  _460
REMARK  192  A    between atoms: _460  and  _461
REMARK  193  A    between atoms: _463  and  _465
REMARK  194  A    between atoms: _465  and  _466
REMARK  195  A    between atoms: _465  and  _468
REMARK  196  A    between atoms: _468  and  _469
REMARK  197  A    between atoms: _474  and  _476
REMARK  198  A    between atoms: _476  and  _477
REMARK  199  A    between atoms: _476  and  _479
REMARK  200  A    between atoms: _479  and  _480
REMARK  201  A    between atoms: _482  and  _484
REMARK  202  A    between atoms: _484  and  _485
REMARK  203  A    between atoms: _484  and  _487
REMARK  204  A    between atoms: _487  and  _488
REMARK  205  A    between atoms: _488  and  _489
REMARK  206  A    between atoms: _489  and  _490
REMARK  207  A    between atoms: _490  and  _491
REMARK  208  A    between atoms: _495  and  _497
REMARK  209  A    between atoms: _497  and  _498
REMARK  210  A    between atoms: _497  and  _500
REMARK  211  A    between atoms: _500  and  _501
REMARK  212  A    between atoms: _504  and  _506
REMARK  213  A    between atoms: _506  and  _507
REMARK  214  A    between atoms: _506  and  _509
REMARK  215  A    between atoms: _509  and  _510
REMARK  216  A    between atoms: _516  and  _518
REMARK  217  A    between atoms: _518  and  _519
REMARK  218  A    between atoms: _518  and  _521
REMARK  219  A    between atoms: _521  and  _522
REMARK  220  A    between atoms: _522  and  _523
REMARK  221  A    between atoms: _523  and  _524
REMARK                            x       y       z     vdW  Elec       q    Type
REMARK                         _______ _______ _______ _____ _____    ______ ____
ROOT
ATOM      1  O   HOH     1      49.329  32.993  18.744  0.00  0.00    +0.000 OA
ENDROOT
TORSDOF 0
REMARK  Name = ../refined-set-2016/4bb9/4bb9_pocket.pdb
REMARK  221 active torsions:
REMARK  status: ('A' for Active; 'I' for Inactive)
REMARK    1  A    between atoms: _1  and  _3
REMARK    2  A    between atoms: _3  and  _4
REMARK    3  A    between atoms: _3  and  _6
REMARK    4  A    between atoms: _6  and  _7
REMARK    5  A    between atoms: _10  and  _12
REMARK    6  A    between atoms: _12  and  _13
REMARK    7  A    between atoms: _12  and  _15
REMARK    8  A    between atoms: _15  and  _16
REMARK    9  A    between atoms: _16  and  _17
REMARK   10  A    between atoms: _20  and  _22
REMARK   11  A    between atoms: _22  and  _23
REMARK   12  A    between atoms: _22  and  _25
REMARK   13  A    between atoms: _25  and  _26
REMARK   14  A    between atoms: _28  and  _30
REMARK   15  A    between atoms: _30  and  _31
REMARK   16  A    between atoms: _33  and  _35
REMARK   17  A    between atoms: _35  and  _36
REMARK   18  A    between atoms: _38  and  _40
REMARK   19  A    between atoms: _40  and  _41
REMARK   20  A    between atoms: _43  and  _45
REMARK   21  A    between atoms: _45  and  _46
REMARK   22  A    between atoms: _45  and  _48
REMARK   23  A    between atoms: _48  and  _49
REMARK   24  A    between atoms: _52  and  _54
REMARK   25  A    between atoms: _54  and  _55
REMARK   26  A    between atoms: _54  and  _57
REMARK   27  A    between atoms: _57  and  _58
REMARK   28  A    between atoms: _60  and  _62
REMARK   29  A    between atoms: _62  and  _63
REMARK   30  A    between atoms: _65  and  _67
REMARK   31  A    between atoms: _67  and  _68
REMARK   32  A    between atoms: _67  and  _70
REMARK   33  A    between atoms: _70  and  _71
REMARK   34  A    between atoms: _71  and  _72
REMARK   35  A    between atoms: _72  and  _73
REMARK   36  A    between atoms: _82  and  _84
REMARK   37  A    between atoms: _84  and  _85
REMARK   38  A    between atoms: _84  and  _87
REMARK   39  A    between atoms: _87  and  _88
REMARK   40  A    between atoms: _88  and  _89
REMARK   41  A    between atoms: _91  and  _93
REMARK   42  A    between atoms: _93  and  _94
REMARK   43  A    between atoms: _97  and  _99
REMARK   44  A    between atoms: _99  and  _100
REMARK   45  A    between atoms: _99  and  _102
REMARK   46  A    between atoms: _102  and  _103
REMARK   47  A    between atoms: _105  and  _107
REMARK   48  A    between atoms: _107  and  _108
REMARK   49  A    between atoms: _107  and  _110
REMARK   50  A    between atoms: _110  and  _111
REMARK   51  A    between atoms: _111  and  _112
REMARK   52  A    between atoms: _112  and  _113
REMARK   53  A    between atoms: _122  and  _124
REMARK   54  A    between atoms: _124  and  _125
REMARK   55  A    between atoms: _124  and  _127
REMARK   56  A    between atoms: _127  and  _128
REMARK   57  A    between atoms: _128  and  _129
REMARK   58  A    between atoms: _132  and  _134
REMARK   59  A    between atoms: _134  and  _135
REMARK   60  A    between atoms: _137  and  _139
REMARK   61  A    between atoms: _139  and  _140
REMARK   62  A    between atoms: _139  and  _142
REMARK   63  A    between atoms: _142  and  _143
REMARK   64  A    between atoms: _146  and  _148
REMARK   65  A    between atoms: _148  and  _149
REMARK   66  A    between atoms: _148  and  _151
REMARK   67  A    between atoms: _151  and  _152
REMARK   68  A    between atoms: _152  and  _153
REMARK   69  A    between atoms: _156  and  _158
REMARK   70  A    between atoms: _158  and  _159
REMARK   71  A    between atoms: _158  and  _161
REMARK   72  A    between atoms: _161  and  _162
REMARK   73  A    between atoms: _165  and  _167
REMARK   74  A    between atoms: _167  and  _168
REMARK   75  A    between atoms: _167  and  _170
REMARK   76  A    between atoms: _170  and  _171
REMARK   77  A    between atoms: _174  and  _176
REMARK   78  A    between atoms: _176  and  _177
REMARK   79  A    between atoms: _176  and  _179
REMARK   80  A    between atoms: _179  and  _180
REMARK   81  A    between atoms: _182  and  _184
REMARK   82  A    between atoms: _184  and  _185
REMARK   83  A    between atoms: _184  and  _187
REMARK   84  A    between atoms: _190  and  _192
REMARK   85  A    between atoms: _192  and  _193
REMARK   86  A    between atoms: _195  and  _197
REMARK   87  A    between atoms: _197  and  _198
REMARK   88  A    between atoms: _197  and  _200
REMARK   89  A    between atoms: _200  and  _201
REMARK   90  A    between atoms: _204  and  _206
REMARK   91  A    between atoms: _206  and  _207
REMARK   92  A    between atoms: _206  and  _209
REMARK   93  A    between atoms: _209  and  _210
REMARK   94  A    between atoms: _212  and  _214
REMARK   95  A    between atoms: _214  and  _215
REMARK   96  A    between atoms: _219  and  _220
REMARK   97  A    between atoms: _225  and  _227
REMARK   98  A    between atoms: _227  and  _228
REMARK   99  A    between atoms: _227  and  _230
REMARK  100  A    between atoms: _230  and  _231
REMARK  101  A    between atoms: _237  and  _239
REMARK  102  A    between atoms: _239  and  _240
REMARK  103  A    between atoms: _239  and  _242
REMARK  104  A    between atoms: _245  and  _247
REMARK  105  A    between atoms: _247  and  _248
REMARK  106  A    between atoms: _251  and  _253
REMARK  107  A    between atoms: _253  and  _254
REMARK  108  A    between atoms: _253  and  _256
REMARK  109  A    between atoms: _259  and  _261
REMARK  110  A    between atoms: _261  and  _262
REMARK  111  A    between atoms: _264  and  _266
REMARK  112  A    between atoms: _266  and  _267
REMARK  113  A    between atoms: _266  and  _269
REMARK  114  A    between atoms: _269  and  _270
REMARK  115  A    between atoms: _276  and  _278
REMARK  116  A    between atoms: _278  and  _279
REMARK  117  A    between atoms: _278  and  _281
REMARK  118  A    between atoms: _281  and  _282
REMARK  119  A    between atoms: _287  and  _289
REMARK  120  A    between atoms: _289  and  _290
REMARK  121  A    between atoms: _289  and  _292
REMARK  122  A    between atoms: _292  and  _293
REMARK  123  A    between atoms: _293  and  _294
REMARK  124  A    between atoms: _294  and  _295
REMARK  125  A    between atoms: _304  and  _306
REMARK  126  A    between atoms: _306  and  _307
REMARK  127  A    between atoms: _306  and  _309
REMARK  128  A    between atoms: _309  and  _310
REMARK  129  A    between atoms: _316  and  _318
REMARK  130  A    between atoms: _318  and  _319
REMARK  131  A    between atoms: _321  and  _323
REMARK  132  A    between atoms: _323  and  _324
REMARK  133  A    between atoms: _323  and  _326
REMARK  134  A    between atoms: _326  and  _327
REMARK  135  A    between atoms: _329  and  _331
REMARK  136  A    between atoms: _331  and  _332
REMARK  137  A    between atoms: _331  and  _334
REMARK  138  A    between atoms: _334  and  _335
REMARK  139  A    between atoms: _337  and  _339
REMARK  140  A    between atoms: _339  and  _340
REMARK  141  A    between atoms: _339  and  _342
REMARK  142  A    between atoms: _342  and  _343
REMARK  143  A    between atoms: _343  and  _344
REMARK  144  A    between atoms: _344  and  _345
REMARK  145  A    between atoms: _354  and  _356
REMARK  146  A    between atoms: _356  and  _357
REMARK  147  A    between atoms: _356  and  _359
REMARK  148  A    between atoms: _359  and  _360
REMARK  149  A    between atoms: _360  and  _361
REMARK  150  A    between atoms: _363  and  _365
REMARK  151  A    between atoms: _365  and  _366
REMARK  152  A    between atoms: _368  and  _370
REMARK  153  A    between atoms: _370  and  _371
REMARK  154  A    between atoms: _373  and  _375
REMARK  155  A    between atoms: _375  and  _376
REMARK  156  A    between atoms: _375  and  _378
REMARK  157  A    between atoms: _378  and  _379
REMARK  158  A    between atoms: _382  and  _384
REMARK  159  A    between atoms: _384  and  _385
REMARK  160  A    between atoms: _384  and  _387
REMARK  161  A    between atoms: _390  and  _392
REMARK  162  A    between atoms: _392  and  _393
REMARK  163  A    between atoms: _392  and  _395
REMARK  164  A    between atoms: _395  and  _396
REMARK  165  A    between atoms: _396  and  _397
REMARK  166  A    between atoms: _400  and  _402
REMARK  167  A    between atoms: _402  and  _403
REMARK  168  A    between atoms: _402  and  _405
REMARK  169  A    between atoms: _405  and  _406
REMARK  170  A    between atoms: _411  and  _413
REMARK  171  A    between atoms: _413  and  _414
REMARK  172  A    between atoms: _413  and  _416
REMARK  173  A    between atoms: _416  and  _417
REMARK  174  A    between atoms: _420  and  _422
REMARK  175  A    between atoms: _422  and  _423
REMARK  176  A    between atoms: _422  and  _425
REMARK  177  A    between atoms: _425  and  _426
REMARK  178  A    between atoms: _426  and  _427
REMARK  179  A    between atoms: _429  and  _431
REMARK  180  A    between atoms: _431  and  _432
REMARK  181  A    between atoms: _431  and  _434
REMARK  182  A    between atoms: _434  and  _435
REMARK  183  A    between atoms: _438  and  _440
REMARK  184  A    between atoms: _440  and  _441
REMARK  185  A    between atoms: _440  and  _443
REMARK  186  A    between atoms: _443  and  _444
REMARK  187  A    between atoms: _444  and  _445
REMARK  188  A    between atoms: _445  and  _446
REMARK  189  A    between atoms: _455  and  _457
REMARK  190  A    between atoms: _457  and  _458
REMARK  191  A    between atoms: _457  and  _460
REMARK  192  A    between atoms: _460  and  _461
REMARK  193  A    between atoms: _463  and  _465
REMARK  194  A    between atoms: _465  and  _466
REMARK  195  A    between atoms: _465  and  _468
REMARK  196  A    between atoms: _468  and  _469
REMARK  197  A    between atoms: _474  and  _476
REMARK  198  A    between atoms: _476  and  _477
REMARK  199  A    between atoms: _476  and  _479
REMARK  200  A    between atoms: _479  and  _480
REMARK  201  A    between atoms: _482  and  _484
REMARK  202  A    between atoms: _484  and  _485
REMARK  203  A    between atoms: _484  and  _487
REMARK  204  A    between atoms: _487  and  _488
REMARK  205  A    between atoms: _488  and  _489
REMARK  206  A    between atoms: _489  and  _490
REMARK  207  A    between atoms: _490  and  _491
REMARK  208  A    between atoms: _495  and  _497
REMARK  209  A    between atoms: _497  and  _498
REMARK  210  A    between atoms: _497  and  _500
REMARK  211  A    between atoms: _500  and  _501
REMARK  212  A    between atoms: _504  and  _506
REMARK  213  A    between atoms: _506  and  _507
REMARK  214  A    between atoms: _506  and  _509
REMARK  215  A    between atoms: _509  and  _510
REMARK  216  A    between atoms: _516  and  _518
REMARK  217  A    between atoms: _518  and  _519
REMARK  218  A    between atoms: _518  and  _521
REMARK  219  A    between atoms: _521  and  _522
REMARK  220  A    between atoms: _522  and  _523
REMARK  221  A    between atoms: _523  and  _524
REMARK                            x       y       z     vdW  Elec       q    Type
REMARK                         _______ _______ _______ _____ _____    ______ ____
ROOT
ATOM      1  O   HOH     1      51.327  36.155  21.007  0.00  0.00    +0.000 OA
ENDROOT
TORSDOF 0
REMARK  Name = ../refined-set-2016/4bb9/4bb9_pocket.pdb
REMARK  221 active torsions:
REMARK  status: ('A' for Active; 'I' for Inactive)
REMARK    1  A    between atoms: _1  and  _3
REMARK    2  A    between atoms: _3  and  _4
REMARK    3  A    between atoms: _3  and  _6
REMARK    4  A    between atoms: _6  and  _7
REMARK    5  A    between atoms: _10  and  _12
REMARK    6  A    between atoms: _12  and  _13
REMARK    7  A    between atoms: _12  and  _15
REMARK    8  A    between atoms: _15  and  _16
REMARK    9  A    between atoms: _16  and  _17
REMARK   10  A    between atoms: _20  and  _22
REMARK   11  A    between atoms: _22  and  _23
REMARK   12  A    between atoms: _22  and  _25
REMARK   13  A    between atoms: _25  and  _26
REMARK   14  A    between atoms: _28  and  _30
REMARK   15  A    between atoms: _30  and  _31
REMARK   16  A    between atoms: _33  and  _35
REMARK   17  A    between atoms: _35  and  _36
REMARK   18  A    between atoms: _38  and  _40
REMARK   19  A    between atoms: _40  and  _41
REMARK   20  A    between atoms: _43  and  _45
REMARK   21  A    between atoms: _45  and  _46
REMARK   22  A    between atoms: _45  and  _48
REMARK   23  A    between atoms: _48  and  _49
REMARK   24  A    between atoms: _52  and  _54
REMARK   25  A    between atoms: _54  and  _55
REMARK   26  A    between atoms: _54  and  _57
REMARK   27  A    between atoms: _57  and  _58
REMARK   28  A    between atoms: _60  and  _62
REMARK   29  A    between atoms: _62  and  _63
REMARK   30  A    between atoms: _65  and  _67
REMARK   31  A    between atoms: _67  and  _68
REMARK   32  A    between atoms: _67  and  _70
REMARK   33  A    between atoms: _70  and  _71
REMARK   34  A    between atoms: _71  and  _72
REMARK   35  A    between atoms: _72  and  _73
REMARK   36  A    between atoms: _82  and  _84
REMARK   37  A    between atoms: _84  and  _85
REMARK   38  A    between atoms: _84  and  _87
REMARK   39  A    between atoms: _87  and  _88
REMARK   40  A    between atoms: _88  and  _89
REMARK   41  A    between atoms: _91  and  _93
REMARK   42  A    between atoms: _93  and  _94
REMARK   43  A    between atoms: _97  and  _99
REMARK   44  A    between atoms: _99  and  _100
REMARK   45  A    between atoms: _99  and  _102
REMARK   46  A    between atoms: _102  and  _103
REMARK   47  A    between atoms: _105  and  _107
REMARK   48  A    between atoms: _107  and  _108
REMARK   49  A    between atoms: _107  and  _110
REMARK   50  A    between atoms: _110  and  _111
REMARK   51  A    between atoms: _111  and  _112
REMARK   52  A    between atoms: _112  and  _113
REMARK   53  A    between atoms: _122  and  _124
REMARK   54  A    between atoms: _124  and  _125
REMARK   55  A    between atoms: _124  and  _127
REMARK   56  A    between atoms: _127  and  _128
REMARK   57  A    between atoms: _128  and  _129
REMARK   58  A    between atoms: _132  and  _134
REMARK   59  A    between atoms: _134  and  _135
REMARK   60  A    between atoms: _137  and  _139
REMARK   61  A    between atoms: _139  and  _140
REMARK   62  A    between atoms: _139  and  _142
REMARK   63  A    between atoms: _142  and  _143
REMARK   64  A    between atoms: _146  and  _148
REMARK   65  A    between atoms: _148  and  _149
REMARK   66  A    between atoms: _148  and  _151
REMARK   67  A    between atoms: _151  and  _152
REMARK   68  A    between atoms: _152  and  _153
REMARK   69  A    between atoms: _156  and  _158
REMARK   70  A    between atoms: _158  and  _159
REMARK   71  A    between atoms: _158  and  _161
REMARK   72  A    between atoms: _161  and  _162
REMARK   73  A    between atoms: _165  and  _167
REMARK   74  A    between atoms: _167  and  _168
REMARK   75  A    between atoms: _167  and  _170
REMARK   76  A    between atoms: _170  and  _171
REMARK   77  A    between atoms: _174  and  _176
REMARK   78  A    between atoms: _176  and  _177
REMARK   79  A    between atoms: _176  and  _179
REMARK   80  A    between atoms: _179  and  _180
REMARK   81  A    between atoms: _182  and  _184
REMARK   82  A    between atoms: _184  and  _185
REMARK   83  A    between atoms: _184  and  _187
REMARK   84  A    between atoms: _190  and  _192
REMARK   85  A    between atoms: _192  and  _193
REMARK   86  A    between atoms: _195  and  _197
REMARK   87  A    between atoms: _197  and  _198
REMARK   88  A    between atoms: _197  and  _200
REMARK   89  A    between atoms: _200  and  _201
REMARK   90  A    between atoms: _204  and  _206
REMARK   91  A    between atoms: _206  and  _207
REMARK   92  A    between atoms: _206  and  _209
REMARK   93  A    between atoms: _209  and  _210
REMARK   94  A    between atoms: _212  and  _214
REMARK   95  A    between atoms: _214  and  _215
REMARK   96  A    between atoms: _219  and  _220
REMARK   97  A    between atoms: _225  and  _227
REMARK   98  A    between atoms: _227  and  _228
REMARK   99  A    between atoms: _227  and  _230
REMARK  100  A    between atoms: _230  and  _231
REMARK  101  A    between atoms: _237  and  _239
REMARK  102  A    between atoms: _239  and  _240
REMARK  103  A    between atoms: _239  and  _242
REMARK  104  A    between atoms: _245  and  _247
REMARK  105  A    between atoms: _247  and  _248
REMARK  106  A    between atoms: _251  and  _253
REMARK  107  A    between atoms: _253  and  _254
REMARK  108  A    between atoms: _253  and  _256
REMARK  109  A    between atoms: _259  and  _261
REMARK  110  A    between atoms: _261  and  _262
REMARK  111  A    between atoms: _264  and  _266
REMARK  112  A    between atoms: _266  and  _267
REMARK  113  A    between atoms: _266  and  _269
REMARK  114  A    between atoms: _269  and  _270
REMARK  115  A    between atoms: _276  and  _278
REMARK  116  A    between atoms: _278  and  _279
REMARK  117  A    between atoms: _278  and  _281
REMARK  118  A    between atoms: _281  and  _282
REMARK  119  A    between atoms: _287  and  _289
REMARK  120  A    between atoms: _289  and  _290
REMARK  121  A    between atoms: _289  and  _292
REMARK  122  A    between atoms: _292  and  _293
REMARK  123  A    between atoms: _293  and  _294
REMARK  124  A    between atoms: _294  and  _295
REMARK  125  A    between atoms: _304  and  _306
REMARK  126  A    between atoms: _306  and  _307
REMARK  127  A    between atoms: _306  and  _309
REMARK  128  A    between atoms: _309  and  _310
REMARK  129  A    between atoms: _316  and  _318
REMARK  130  A    between atoms: _318  and  _319
REMARK  131  A    between atoms: _321  and  _323
REMARK  132  A    between atoms: _323  and  _324
REMARK  133  A    between atoms: _323  and  _326
REMARK  134  A    between atoms: _326  and  _327
REMARK  135  A    between atoms: _329  and  _331
REMARK  136  A    between atoms: _331  and  _332
REMARK  137  A    between atoms: _331  and  _334
REMARK  138  A    between atoms: _334  and  _335
REMARK  139  A    between atoms: _337  and  _339
REMARK  140  A    between atoms: _339  and  _340
REMARK  141  A    between atoms: _339  and  _342
REMARK  142  A    between atoms: _342  and  _343
REMARK  143  A    between atoms: _343  and  _344
REMARK  144  A    between atoms: _344  and  _345
REMARK  145  A    between atoms: _354  and  _356
REMARK  146  A    between atoms: _356  and  _357
REMARK  147  A    between atoms: _356  and  _359
REMARK  148  A    between atoms: _359  and  _360
REMARK  149  A    between atoms: _360  and  _361
REMARK  150  A    between atoms: _363  and  _365
REMARK  151  A    between atoms: _365  and  _366
REMARK  152  A    between atoms: _368  and  _370
REMARK  153  A    between atoms: _370  and  _371
REMARK  154  A    between atoms: _373  and  _375
REMARK  155  A    between atoms: _375  and  _376
REMARK  156  A    between atoms: _375  and  _378
REMARK  157  A    between atoms: _378  and  _379
REMARK  158  A    between atoms: _382  and  _384
REMARK  159  A    between atoms: _384  and  _385
REMARK  160  A    between atoms: _384  and  _387
REMARK  161  A    between atoms: _390  and  _392
REMARK  162  A    between atoms: _392  and  _393
REMARK  163  A    between atoms: _392  and  _395
REMARK  164  A    between atoms: _395  and  _396
REMARK  165  A    between atoms: _396  and  _397
REMARK  166  A    between atoms: _400  and  _402
REMARK  167  A    between atoms: _402  and  _403
REMARK  168  A    between atoms: _402  and  _405
REMARK  169  A    between atoms: _405  and  _406
REMARK  170  A    between atoms: _411  and  _413
REMARK  171  A    between atoms: _413  and  _414
REMARK  172  A    between atoms: _413  and  _416
REMARK  173  A    between atoms: _416  and  _417
REMARK  174  A    between atoms: _420  and  _422
REMARK  175  A    between atoms: _422  and  _423
REMARK  176  A    between atoms: _422  and  _425
REMARK  177  A    between atoms: _425  and  _426
REMARK  178  A    between atoms: _426  and  _427
REMARK  179  A    between atoms: _429  and  _431
REMARK  180  A    between atoms: _431  and  _432
REMARK  181  A    between atoms: _431  and  _434
REMARK  182  A    between atoms: _434  and  _435
REMARK  183  A    between atoms: _438  and  _440
REMARK  184  A    between atoms: _440  and  _441
REMARK  185  A    between atoms: _440  and  _443
REMARK  186  A    between atoms: _443  and  _444
REMARK  187  A    between atoms: _444  and  _445
REMARK  188  A    between atoms: _445  and  _446
REMARK  189  A    between atoms: _455  and  _457
REMARK  190  A    between atoms: _457  and  _458
REMARK  191  A    between atoms: _457  and  _460
REMARK  192  A    between atoms: _460  and  _461
REMARK  193  A    between atoms: _463  and  _465
REMARK  194  A    between atoms: _465  and  _466
REMARK  195  A    between atoms: _465  and  _468
REMARK  196  A    between atoms: _468  and  _469
REMARK  197  A    between atoms: _474  and  _476
REMARK  198  A    between atoms: _476  and  _477
REMARK  199  A    between atoms: _476  and  _479
REMARK  200  A    between atoms: _479  and  _480
REMARK  201  A    between atoms: _482  and  _484
REMARK  202  A    between atoms: _484  and  _485
REMARK  203  A    between atoms: _484  and  _487
REMARK  204  A    between atoms: _487  and  _488
REMARK  205  A    between atoms: _488  and  _489
REMARK  206  A    between atoms: _489  and  _490
REMARK  207  A    between atoms: _490  and  _491
REMARK  208  A    between atoms: _495  and  _497
REMARK  209  A    between atoms: _497  and  _498
REMARK  210  A    between atoms: _497  and  _500
REMARK  211  A    between atoms: _500  and  _501
REMARK  212  A    between atoms: _504  and  _506
REMARK  213  A    between atoms: _506  and  _507
REMARK  214  A    between atoms: _506  and  _509
REMARK  215  A    between atoms: _509  and  _510
REMARK  216  A    between atoms: _516  and  _518
REMARK  217  A    between atoms: _518  and  _519
REMARK  218  A    between atoms: _518  and  _521
REMARK  219  A    between atoms: _521  and  _522
REMARK  220  A    between atoms: _522  and  _523
REMARK  221  A    between atoms: _523  and  _524
REMARK                            x       y       z     vdW  Elec       q    Type
REMARK                         _______ _______ _______ _____ _____    ______ ____
ROOT
ATOM      1  O   HOH     1      45.556  34.627  12.644  0.00  0.00    +0.000 OA
ENDROOT
TORSDOF 0
REMARK  Name = ../refined-set-2016/4bb9/4bb9_pocket.pdb
REMARK  221 active torsions:
REMARK  status: ('A' for Active; 'I' for Inactive)
REMARK    1  A    between atoms: _1  and  _3
REMARK    2  A    between atoms: _3  and  _4
REMARK    3  A    between atoms: _3  and  _6
REMARK    4  A    between atoms: _6  and  _7
REMARK    5  A    between atoms: _10  and  _12
REMARK    6  A    between atoms: _12  and  _13
REMARK    7  A    between atoms: _12  and  _15
REMARK    8  A    between atoms: _15  and  _16
REMARK    9  A    between atoms: _16  and  _17
REMARK   10  A    between atoms: _20  and  _22
REMARK   11  A    between atoms: _22  and  _23
REMARK   12  A    between atoms: _22  and  _25
REMARK   13  A    between atoms: _25  and  _26
REMARK   14  A    between atoms: _28  and  _30
REMARK   15  A    between atoms: _30  and  _31
REMARK   16  A    between atoms: _33  and  _35
REMARK   17  A    between atoms: _35  and  _36
REMARK   18  A    between atoms: _38  and  _40
REMARK   19  A    between atoms: _40  and  _41
REMARK   20  A    between atoms: _43  and  _45
REMARK   21  A    between atoms: _45  and  _46
REMARK   22  A    between atoms: _45  and  _48
REMARK   23  A    between atoms: _48  and  _49
REMARK   24  A    between atoms: _52  and  _54
REMARK   25  A    between atoms: _54  and  _55
REMARK   26  A    between atoms: _54  and  _57
REMARK   27  A    between atoms: _57  and  _58
REMARK   28  A    between atoms: _60  and  _62
REMARK   29  A    between atoms: _62  and  _63
REMARK   30  A    between atoms: _65  and  _67
REMARK   31  A    between atoms: _67  and  _68
REMARK   32  A    between atoms: _67  and  _70
REMARK   33  A    between atoms: _70  and  _71
REMARK   34  A    between atoms: _71  and  _72
REMARK   35  A    between atoms: _72  and  _73
REMARK   36  A    between atoms: _82  and  _84
REMARK   37  A    between atoms: _84  and  _85
REMARK   38  A    between atoms: _84  and  _87
REMARK   39  A    between atoms: _87  and  _88
REMARK   40  A    between atoms: _88  and  _89
REMARK   41  A    between atoms: _91  and  _93
REMARK   42  A    between atoms: _93  and  _94
REMARK   43  A    between atoms: _97  and  _99
REMARK   44  A    between atoms: _99  and  _100
REMARK   45  A    between atoms: _99  and  _102
REMARK   46  A    between atoms: _102  and  _103
REMARK   47  A    between atoms: _105  and  _107
REMARK   48  A    between atoms: _107  and  _108
REMARK   49  A    between atoms: _107  and  _110
REMARK   50  A    between atoms: _110  and  _111
REMARK   51  A    between atoms: _111  and  _112
REMARK   52  A    between atoms: _112  and  _113
REMARK   53  A    between atoms: _122  and  _124
REMARK   54  A    between atoms: _124  and  _125
REMARK   55  A    between atoms: _124  and  _127
REMARK   56  A    between atoms: _127  and  _128
REMARK   57  A    between atoms: _128  and  _129
REMARK   58  A    between atoms: _132  and  _134
REMARK   59  A    between atoms: _134  and  _135
REMARK   60  A    between atoms: _137  and  _139
REMARK   61  A    between atoms: _139  and  _140
REMARK   62  A    between atoms: _139  and  _142
REMARK   63  A    between atoms: _142  and  _143
REMARK   64  A    between atoms: _146  and  _148
REMARK   65  A    between atoms: _148  and  _149
REMARK   66  A    between atoms: _148  and  _151
REMARK   67  A    between atoms: _151  and  _152
REMARK   68  A    between atoms: _152  and  _153
REMARK   69  A    between atoms: _156  and  _158
REMARK   70  A    between atoms: _158  and  _159
REMARK   71  A    between atoms: _158  and  _161
REMARK   72  A    between atoms: _161  and  _162
REMARK   73  A    between atoms: _165  and  _167
REMARK   74  A    between atoms: _167  and  _168
REMARK   75  A    between atoms: _167  and  _170
REMARK   76  A    between atoms: _170  and  _171
REMARK   77  A    between atoms: _174  and  _176
REMARK   78  A    between atoms: _176  and  _177
REMARK   79  A    between atoms: _176  and  _179
REMARK   80  A    between atoms: _179  and  _180
REMARK   81  A    between atoms: _182  and  _184
REMARK   82  A    between atoms: _184  and  _185
REMARK   83  A    between atoms: _184  and  _187
REMARK   84  A    between atoms: _190  and  _192
REMARK   85  A    between atoms: _192  and  _193
REMARK   86  A    between atoms: _195  and  _197
REMARK   87  A    between atoms: _197  and  _198
REMARK   88  A    between atoms: _197  and  _200
REMARK   89  A    between atoms: _200  and  _201
REMARK   90  A    between atoms: _204  and  _206
REMARK   91  A    between atoms: _206  and  _207
REMARK   92  A    between atoms: _206  and  _209
REMARK   93  A    between atoms: _209  and  _210
REMARK   94  A    between atoms: _212  and  _214
REMARK   95  A    between atoms: _214  and  _215
REMARK   96  A    between atoms: _219  and  _220
REMARK   97  A    between atoms: _225  and  _227
REMARK   98  A    between atoms: _227  and  _228
REMARK   99  A    between atoms: _227  and  _230
REMARK  100  A    between atoms: _230  and  _231
REMARK  101  A    between atoms: _237  and  _239
REMARK  102  A    between atoms: _239  and  _240
REMARK  103  A    between atoms: _239  and  _242
REMARK  104  A    between atoms: _245  and  _247
REMARK  105  A    between atoms: _247  and  _248
REMARK  106  A    between atoms: _251  and  _253
REMARK  107  A    between atoms: _253  and  _254
REMARK  108  A    between atoms: _253  and  _256
REMARK  109  A    between atoms: _259  and  _261
REMARK  110  A    between atoms: _261  and  _262
REMARK  111  A    between atoms: _264  and  _266
REMARK  112  A    between atoms: _266  and  _267
REMARK  113  A    between atoms: _266  and  _269
REMARK  114  A    between atoms: _269  and  _270
REMARK  115  A    between atoms: _276  and  _278
REMARK  116  A    between atoms: _278  and  _279
REMARK  117  A    between atoms: _278  and  _281
REMARK  118  A    between atoms: _281  and  _282
REMARK  119  A    between atoms: _287  and  _289
REMARK  120  A    between atoms: _289  and  _290
REMARK  121  A    between atoms: _289  and  _292
REMARK  122  A    between atoms: _292  and  _293
REMARK  123  A    between atoms: _293  and  _294
REMARK  124  A    between atoms: _294  and  _295
REMARK  125  A    between atoms: _304  and  _306
REMARK  126  A    between atoms: _306  and  _307
REMARK  127  A    between atoms: _306  and  _309
REMARK  128  A    between atoms: _309  and  _310
REMARK  129  A    between atoms: _316  and  _318
REMARK  130  A    between atoms: _318  and  _319
REMARK  131  A    between atoms: _321  and  _323
REMARK  132  A    between atoms: _323  and  _324
REMARK  133  A    between atoms: _323  and  _326
REMARK  134  A    between atoms: _326  and  _327
REMARK  135  A    between atoms: _329  and  _331
REMARK  136  A    between atoms: _331  and  _332
REMARK  137  A    between atoms: _331  and  _334
REMARK  138  A    between atoms: _334  and  _335
REMARK  139  A    between atoms: _337  and  _339
REMARK  140  A    between atoms: _339  and  _340
REMARK  141  A    between atoms: _339  and  _342
REMARK  142  A    between atoms: _342  and  _343
REMARK  143  A    between atoms: _343  and  _344
REMARK  144  A    between atoms: _344  and  _345
REMARK  145  A    between atoms: _354  and  _356
REMARK  146  A    between atoms: _356  and  _357
REMARK  147  A    between atoms: _356  and  _359
REMARK  148  A    between atoms: _359  and  _360
REMARK  149  A    between atoms: _360  and  _361
REMARK  150  A    between atoms: _363  and  _365
REMARK  151  A    between atoms: _365  and  _366
REMARK  152  A    between atoms: _368  and  _370
REMARK  153  A    between atoms: _370  and  _371
REMARK  154  A    between atoms: _373  and  _375
REMARK  155  A    between atoms: _375  and  _376
REMARK  156  A    between atoms: _375  and  _378
REMARK  157  A    between atoms: _378  and  _379
REMARK  158  A    between atoms: _382  and  _384
REMARK  159  A    between atoms: _384  and  _385
REMARK  160  A    between atoms: _384  and  _387
REMARK  161  A    between atoms: _390  and  _392
REMARK  162  A    between atoms: _392  and  _393
REMARK  163  A    between atoms: _392  and  _395
REMARK  164  A    between atoms: _395  and  _396
REMARK  165  A    between atoms: _396  and  _397
REMARK  166  A    between atoms: _400  and  _402
REMARK  167  A    between atoms: _402  and  _403
REMARK  168  A    between atoms: _402  and  _405
REMARK  169  A    between atoms: _405  and  _406
REMARK  170  A    between atoms: _411  and  _413
REMARK  171  A    between atoms: _413  and  _414
REMARK  172  A    between atoms: _413  and  _416
REMARK  173  A    between atoms: _416  and  _417
REMARK  174  A    between atoms: _420  and  _422
REMARK  175  A    between atoms: _422  and  _423
REMARK  176  A    between atoms: _422  and  _425
REMARK  177  A    between atoms: _425  and  _426
REMARK  178  A    between atoms: _426  and  _427
REMARK  179  A    between atoms: _429  and  _431
REMARK  180  A    between atoms: _431  and  _432
REMARK  181  A    between atoms: _431  and  _434
REMARK  182  A    between atoms: _434  and  _435
REMARK  183  A    between atoms: _438  and  _440
REMARK  184  A    between atoms: _440  and  _441
REMARK  185  A    between atoms: _440  and  _443
REMARK  186  A    between atoms: _443  and  _444
REMARK  187  A    between atoms: _444  and  _445
REMARK  188  A    between atoms: _445  and  _446
REMARK  189  A    between atoms: _455  and  _457
REMARK  190  A    between atoms: _457  and  _458
REMARK  191  A    between atoms: _457  and  _460
REMARK  192  A    between atoms: _460  and  _461
REMARK  193  A    between atoms: _463  and  _465
REMARK  194  A    between atoms: _465  and  _466
REMARK  195  A    between atoms: _465  and  _468
REMARK  196  A    between atoms: _468  and  _469
REMARK  197  A    between atoms: _474  and  _476
REMARK  198  A    between atoms: _476  and  _477
REMARK  199  A    between atoms: _476  and  _479
REMARK  200  A    between atoms: _479  and  _480
REMARK  201  A    between atoms: _482  and  _484
REMARK  202  A    between atoms: _484  and  _485
REMARK  203  A    between atoms: _484  and  _487
REMARK  204  A    between atoms: _487  and  _488
REMARK  205  A    between atoms: _488  and  _489
REMARK  206  A    between atoms: _489  and  _490
REMARK  207  A    between atoms: _490  and  _491
REMARK  208  A    between atoms: _495  and  _497
REMARK  209  A    between atoms: _497  and  _498
REMARK  210  A    between atoms: _497  and  _500
REMARK  211  A    between atoms: _500  and  _501
REMARK  212  A    between atoms: _504  and  _506
REMARK  213  A    between atoms: _506  and  _507
REMARK  214  A    between atoms: _506  and  _509
REMARK  215  A    between atoms: _509  and  _510
REMARK  216  A    between atoms: _516  and  _518
REMARK  217  A    between atoms: _518  and  _519
REMARK  218  A    between atoms: _518  and  _521
REMARK  219  A    between atoms: _521  and  _522
REMARK  220  A    between atoms: _522  and  _523
REMARK  221  A    between atoms: _523  and  _524
REMARK                            x       y       z     vdW  Elec       q    Type
REMARK                         _______ _______ _______ _____ _____    ______ ____
ROOT
ATOM      1  O   HOH     1      47.340  35.630   9.301  0.00  0.00    +0.000 OA
ENDROOT
TORSDOF 0
REMARK  Name = ../refined-set-2016/4bb9/4bb9_pocket.pdb
REMARK  221 active torsions:
REMARK  status: ('A' for Active; 'I' for Inactive)
REMARK    1  A    between atoms: _1  and  _3
REMARK    2  A    between atoms: _3  and  _4
REMARK    3  A    between atoms: _3  and  _6
REMARK    4  A    between atoms: _6  and  _7
REMARK    5  A    between atoms: _10  and  _12
REMARK    6  A    between atoms: _12  and  _13
REMARK    7  A    between atoms: _12  and  _15
REMARK    8  A    between atoms: _15  and  _16
REMARK    9  A    between atoms: _16  and  _17
REMARK   10  A    between atoms: _20  and  _22
REMARK   11  A    between atoms: _22  and  _23
REMARK   12  A    between atoms: _22  and  _25
REMARK   13  A    between atoms: _25  and  _26
REMARK   14  A    between atoms: _28  and  _30
REMARK   15  A    between atoms: _30  and  _31
REMARK   16  A    between atoms: _33  and  _35
REMARK   17  A    between atoms: _35  and  _36
REMARK   18  A    between atoms: _38  and  _40
REMARK   19  A    between atoms: _40  and  _41
REMARK   20  A    between atoms: _43  and  _45
REMARK   21  A    between atoms: _45  and  _46
REMARK   22  A    between atoms: _45  and  _48
REMARK   23  A    between atoms: _48  and  _49
REMARK   24  A    between atoms: _52  and  _54
REMARK   25  A    between atoms: _54  and  _55
REMARK   26  A    between atoms: _54  and  _57
REMARK   27  A    between atoms: _57  and  _58
REMARK   28  A    between atoms: _60  and  _62
REMARK   29  A    between atoms: _62  and  _63
REMARK   30  A    between atoms: _65  and  _67
REMARK   31  A    between atoms: _67  and  _68
REMARK   32  A    between atoms: _67  and  _70
REMARK   33  A    between atoms: _70  and  _71
REMARK   34  A    between atoms: _71  and  _72
REMARK   35  A    between atoms: _72  and  _73
REMARK   36  A    between atoms: _82  and  _84
REMARK   37  A    between atoms: _84  and  _85
REMARK   38  A    between atoms: _84  and  _87
REMARK   39  A    between atoms: _87  and  _88
REMARK   40  A    between atoms: _88  and  _89
REMARK   41  A    between atoms: _91  and  _93
REMARK   42  A    between atoms: _93  and  _94
REMARK   43  A    between atoms: _97  and  _99
REMARK   44  A    between atoms: _99  and  _100
REMARK   45  A    between atoms: _99  and  _102
REMARK   46  A    between atoms: _102  and  _103
REMARK   47  A    between atoms: _105  and  _107
REMARK   48  A    between atoms: _107  and  _108
REMARK   49  A    between atoms: _107  and  _110
REMARK   50  A    between atoms: _110  and  _111
REMARK   51  A    between atoms: _111  and  _112
REMARK   52  A    between atoms: _112  and  _113
REMARK   53  A    between atoms: _122  and  _124
REMARK   54  A    between atoms: _124  and  _125
REMARK   55  A    between atoms: _124  and  _127
REMARK   56  A    between atoms: _127  and  _128
REMARK   57  A    between atoms: _128  and  _129
REMARK   58  A    between atoms: _132  and  _134
REMARK   59  A    between atoms: _134  and  _135
REMARK   60  A    between atoms: _137  and  _139
REMARK   61  A    between atoms: _139  and  _140
REMARK   62  A    between atoms: _139  and  _142
REMARK   63  A    between atoms: _142  and  _143
REMARK   64  A    between atoms: _146  and  _148
REMARK   65  A    between atoms: _148  and  _149
REMARK   66  A    between atoms: _148  and  _151
REMARK   67  A    between atoms: _151  and  _152
REMARK   68  A    between atoms: _152  and  _153
REMARK   69  A    between atoms: _156  and  _158
REMARK   70  A    between atoms: _158  and  _159
REMARK   71  A    between atoms: _158  and  _161
REMARK   72  A    between atoms: _161  and  _162
REMARK   73  A    between atoms: _165  and  _167
REMARK   74  A    between atoms: _167  and  _168
REMARK   75  A    between atoms: _167  and  _170
REMARK   76  A    between atoms: _170  and  _171
REMARK   77  A    between atoms: _174  and  _176
REMARK   78  A    between atoms: _176  and  _177
REMARK   79  A    between atoms: _176  and  _179
REMARK   80  A    between atoms: _179  and  _180
REMARK   81  A    between atoms: _182  and  _184
REMARK   82  A    between atoms: _184  and  _185
REMARK   83  A    between atoms: _184  and  _187
REMARK   84  A    between atoms: _190  and  _192
REMARK   85  A    between atoms: _192  and  _193
REMARK   86  A    between atoms: _195  and  _197
REMARK   87  A    between atoms: _197  and  _198
REMARK   88  A    between atoms: _197  and  _200
REMARK   89  A    between atoms: _200  and  _201
REMARK   90  A    between atoms: _204  and  _206
REMARK   91  A    between atoms: _206  and  _207
REMARK   92  A    between atoms: _206  and  _209
REMARK   93  A    between atoms: _209  and  _210
REMARK   94  A    between atoms: _212  and  _214
REMARK   95  A    between atoms: _214  and  _215
REMARK   96  A    between atoms: _219  and  _220
REMARK   97  A    between atoms: _225  and  _227
REMARK   98  A    between atoms: _227  and  _228
REMARK   99  A    between atoms: _227  and  _230
REMARK  100  A    between atoms: _230  and  _231
REMARK  101  A    between atoms: _237  and  _239
REMARK  102  A    between atoms: _239  and  _240
REMARK  103  A    between atoms: _239  and  _242
REMARK  104  A    between atoms: _245  and  _247
REMARK  105  A    between atoms: _247  and  _248
REMARK  106  A    between atoms: _251  and  _253
REMARK  107  A    between atoms: _253  and  _254
REMARK  108  A    between atoms: _253  and  _256
REMARK  109  A    between atoms: _259  and  _261
REMARK  110  A    between atoms: _261  and  _262
REMARK  111  A    between atoms: _264  and  _266
REMARK  112  A    between atoms: _266  and  _267
REMARK  113  A    between atoms: _266  and  _269
REMARK  114  A    between atoms: _269  and  _270
REMARK  115  A    between atoms: _276  and  _278
REMARK  116  A    between atoms: _278  and  _279
REMARK  117  A    between atoms: _278  and  _281
REMARK  118  A    between atoms: _281  and  _282
REMARK  119  A    between atoms: _287  and  _289
REMARK  120  A    between atoms: _289  and  _290
REMARK  121  A    between atoms: _289  and  _292
REMARK  122  A    between atoms: _292  and  _293
REMARK  123  A    between atoms: _293  and  _294
REMARK  124  A    between atoms: _294  and  _295
REMARK  125  A    between atoms: _304  and  _306
REMARK  126  A    between atoms: _306  and  _307
REMARK  127  A    between atoms: _306  and  _309
REMARK  128  A    between atoms: _309  and  _310
REMARK  129  A    between atoms: _316  and  _318
REMARK  130  A    between atoms: _318  and  _319
REMARK  131  A    between atoms: _321  and  _323
REMARK  132  A    between atoms: _323  and  _324
REMARK  133  A    between atoms: _323  and  _326
REMARK  134  A    between atoms: _326  and  _327
REMARK  135  A    between atoms: _329  and  _331
REMARK  136  A    between atoms: _331  and  _332
REMARK  137  A    between atoms: _331  and  _334
REMARK  138  A    between atoms: _334  and  _335
REMARK  139  A    between atoms: _337  and  _339
REMARK  140  A    between atoms: _339  and  _340
REMARK  141  A    between atoms: _339  and  _342
REMARK  142  A    between atoms: _342  and  _343
REMARK  143  A    between atoms: _343  and  _344
REMARK  144  A    between atoms: _344  and  _345
REMARK  145  A    between atoms: _354  and  _356
REMARK  146  A    between atoms: _356  and  _357
REMARK  147  A    between atoms: _356  and  _359
REMARK  148  A    between atoms: _359  and  _360
REMARK  149  A    between atoms: _360  and  _361
REMARK  150  A    between atoms: _363  and  _365
REMARK  151  A    between atoms: _365  and  _366
REMARK  152  A    between atoms: _368  and  _370
REMARK  153  A    between atoms: _370  and  _371
REMARK  154  A    between atoms: _373  and  _375
REMARK  155  A    between atoms: _375  and  _376
REMARK  156  A    between atoms: _375  and  _378
REMARK  157  A    between atoms: _378  and  _379
REMARK  158  A    between atoms: _382  and  _384
REMARK  159  A    between atoms: _384  and  _385
REMARK  160  A    between atoms: _384  and  _387
REMARK  161  A    between atoms: _390  and  _392
REMARK  162  A    between atoms: _392  and  _393
REMARK  163  A    between atoms: _392  and  _395
REMARK  164  A    between atoms: _395  and  _396
REMARK  165  A    between atoms: _396  and  _397
REMARK  166  A    between atoms: _400  and  _402
REMARK  167  A    between atoms: _402  and  _403
REMARK  168  A    between atoms: _402  and  _405
REMARK  169  A    between atoms: _405  and  _406
REMARK  170  A    between atoms: _411  and  _413
REMARK  171  A    between atoms: _413  and  _414
REMARK  172  A    between atoms: _413  and  _416
REMARK  173  A    between atoms: _416  and  _417
REMARK  174  A    between atoms: _420  and  _422
REMARK  175  A    between atoms: _422  and  _423
REMARK  176  A    between atoms: _422  and  _425
REMARK  177  A    between atoms: _425  and  _426
REMARK  178  A    between atoms: _426  and  _427
REMARK  179  A    between atoms: _429  and  _431
REMARK  180  A    between atoms: _431  and  _432
REMARK  181  A    between atoms: _431  and  _434
REMARK  182  A    between atoms: _434  and  _435
REMARK  183  A    between atoms: _438  and  _440
REMARK  184  A    between atoms: _440  and  _441
REMARK  185  A    between atoms: _440  and  _443
REMARK  186  A    between atoms: _443  and  _444
REMARK  187  A    between atoms: _444  and  _445
REMARK  188  A    between atoms: _445  and  _446
REMARK  189  A    between atoms: _455  and  _457
REMARK  190  A    between atoms: _457  and  _458
REMARK  191  A    between atoms: _457  and  _460
REMARK  192  A    between atoms: _460  and  _461
REMARK  193  A    between atoms: _463  and  _465
REMARK  194  A    between atoms: _465  and  _466
REMARK  195  A    between atoms: _465  and  _468
REMARK  196  A    between atoms: _468  and  _469
REMARK  197  A    between atoms: _474  and  _476
REMARK  198  A    between atoms: _476  and  _477
REMARK  199  A    between atoms: _476  and  _479
REMARK  200  A    between atoms: _479  and  _480
REMARK  201  A    between atoms: _482  and  _484
REMARK  202  A    between atoms: _484  and  _485
REMARK  203  A    between atoms: _484  and  _487
REMARK  204  A    between atoms: _487  and  _488
REMARK  205  A    between atoms: _488  and  _489
REMARK  206  A    between atoms: _489  and  _490
REMARK  207  A    between atoms: _490  and  _491
REMARK  208  A    between atoms: _495  and  _497
REMARK  209  A    between atoms: _497  and  _498
REMARK  210  A    between atoms: _497  and  _500
REMARK  211  A    between atoms: _500  and  _501
REMARK  212  A    between atoms: _504  and  _506
REMARK  213  A    between atoms: _506  and  _507
REMARK  214  A    between atoms: _506  and  _509
REMARK  215  A    between atoms: _509  and  _510
REMARK  216  A    between atoms: _516  and  _518
REMARK  217  A    between atoms: _518  and  _519
REMARK  218  A    between atoms: _518  and  _521
REMARK  219  A    between atoms: _521  and  _522
REMARK  220  A    between atoms: _522  and  _523
REMARK  221  A    between atoms: _523  and  _524
REMARK                            x       y       z     vdW  Elec       q    Type
REMARK                         _______ _______ _______ _____ _____    ______ ____
ROOT
ATOM      1  O   HOH     1      41.748  33.148  11.727  0.00  0.00    +0.000 OA
ENDROOT
TORSDOF 0
REMARK  Name = ../refined-set-2016/4bb9/4bb9_pocket.pdb
REMARK  221 active torsions:
REMARK  status: ('A' for Active; 'I' for Inactive)
REMARK    1  A    between atoms: _1  and  _3
REMARK    2  A    between atoms: _3  and  _4
REMARK    3  A    between atoms: _3  and  _6
REMARK    4  A    between atoms: _6  and  _7
REMARK    5  A    between atoms: _10  and  _12
REMARK    6  A    between atoms: _12  and  _13
REMARK    7  A    between atoms: _12  and  _15
REMARK    8  A    between atoms: _15  and  _16
REMARK    9  A    between atoms: _16  and  _17
REMARK   10  A    between atoms: _20  and  _22
REMARK   11  A    between atoms: _22  and  _23
REMARK   12  A    between atoms: _22  and  _25
REMARK   13  A    between atoms: _25  and  _26
REMARK   14  A    between atoms: _28  and  _30
REMARK   15  A    between atoms: _30  and  _31
REMARK   16  A    between atoms: _33  and  _35
REMARK   17  A    between atoms: _35  and  _36
REMARK   18  A    between atoms: _38  and  _40
REMARK   19  A    between atoms: _40  and  _41
REMARK   20  A    between atoms: _43  and  _45
REMARK   21  A    between atoms: _45  and  _46
REMARK   22  A    between atoms: _45  and  _48
REMARK   23  A    between atoms: _48  and  _49
REMARK   24  A    between atoms: _52  and  _54
REMARK   25  A    between atoms: _54  and  _55
REMARK   26  A    between atoms: _54  and  _57
REMARK   27  A    between atoms: _57  and  _58
REMARK   28  A    between atoms: _60  and  _62
REMARK   29  A    between atoms: _62  and  _63
REMARK   30  A    between atoms: _65  and  _67
REMARK   31  A    between atoms: _67  and  _68
REMARK   32  A    between atoms: _67  and  _70
REMARK   33  A    between atoms: _70  and  _71
REMARK   34  A    between atoms: _71  and  _72
REMARK   35  A    between atoms: _72  and  _73
REMARK   36  A    between atoms: _82  and  _84
REMARK   37  A    between atoms: _84  and  _85
REMARK   38  A    between atoms: _84  and  _87
REMARK   39  A    between atoms: _87  and  _88
REMARK   40  A    between atoms: _88  and  _89
REMARK   41  A    between atoms: _91  and  _93
REMARK   42  A    between atoms: _93  and  _94
REMARK   43  A    between atoms: _97  and  _99
REMARK   44  A    between atoms: _99  and  _100
REMARK   45  A    between atoms: _99  and  _102
REMARK   46  A    between atoms: _102  and  _103
REMARK   47  A    between atoms: _105  and  _107
REMARK   48  A    between atoms: _107  and  _108
REMARK   49  A    between atoms: _107  and  _110
REMARK   50  A    between atoms: _110  and  _111
REMARK   51  A    between atoms: _111  and  _112
REMARK   52  A    between atoms: _112  and  _113
REMARK   53  A    between atoms: _122  and  _124
REMARK   54  A    between atoms: _124  and  _125
REMARK   55  A    between atoms: _124  and  _127
REMARK   56  A    between atoms: _127  and  _128
REMARK   57  A    between atoms: _128  and  _129
REMARK   58  A    between atoms: _132  and  _134
REMARK   59  A    between atoms: _134  and  _135
REMARK   60  A    between atoms: _137  and  _139
REMARK   61  A    between atoms: _139  and  _140
REMARK   62  A    between atoms: _139  and  _142
REMARK   63  A    between atoms: _142  and  _143
REMARK   64  A    between atoms: _146  and  _148
REMARK   65  A    between atoms: _148  and  _149
REMARK   66  A    between atoms: _148  and  _151
REMARK   67  A    between atoms: _151  and  _152
REMARK   68  A    between atoms: _152  and  _153
REMARK   69  A    between atoms: _156  and  _158
REMARK   70  A    between atoms: _158  and  _159
REMARK   71  A    between atoms: _158  and  _161
REMARK   72  A    between atoms: _161  and  _162
REMARK   73  A    between atoms: _165  and  _167
REMARK   74  A    between atoms: _167  and  _168
REMARK   75  A    between atoms: _167  and  _170
REMARK   76  A    between atoms: _170  and  _171
REMARK   77  A    between atoms: _174  and  _176
REMARK   78  A    between atoms: _176  and  _177
REMARK   79  A    between atoms: _176  and  _179
REMARK   80  A    between atoms: _179  and  _180
REMARK   81  A    between atoms: _182  and  _184
REMARK   82  A    between atoms: _184  and  _185
REMARK   83  A    between atoms: _184  and  _187
REMARK   84  A    between atoms: _190  and  _192
REMARK   85  A    between atoms: _192  and  _193
REMARK   86  A    between atoms: _195  and  _197
REMARK   87  A    between atoms: _197  and  _198
REMARK   88  A    between atoms: _197  and  _200
REMARK   89  A    between atoms: _200  and  _201
REMARK   90  A    between atoms: _204  and  _206
REMARK   91  A    between atoms: _206  and  _207
REMARK   92  A    between atoms: _206  and  _209
REMARK   93  A    between atoms: _209  and  _210
REMARK   94  A    between atoms: _212  and  _214
REMARK   95  A    between atoms: _214  and  _215
REMARK   96  A    between atoms: _219  and  _220
REMARK   97  A    between atoms: _225  and  _227
REMARK   98  A    between atoms: _227  and  _228
REMARK   99  A    between atoms: _227  and  _230
REMARK  100  A    between atoms: _230  and  _231
REMARK  101  A    between atoms: _237  and  _239
REMARK  102  A    between atoms: _239  and  _240
REMARK  103  A    between atoms: _239  and  _242
REMARK  104  A    between atoms: _245  and  _247
REMARK  105  A    between atoms: _247  and  _248
REMARK  106  A    between atoms: _251  and  _253
REMARK  107  A    between atoms: _253  and  _254
REMARK  108  A    between atoms: _253  and  _256
REMARK  109  A    between atoms: _259  and  _261
REMARK  110  A    between atoms: _261  and  _262
REMARK  111  A    between atoms: _264  and  _266
REMARK  112  A    between atoms: _266  and  _267
REMARK  113  A    between atoms: _266  and  _269
REMARK  114  A    between atoms: _269  and  _270
REMARK  115  A    between atoms: _276  and  _278
REMARK  116  A    between atoms: _278  and  _279
REMARK  117  A    between atoms: _278  and  _281
REMARK  118  A    between atoms: _281  and  _282
REMARK  119  A    between atoms: _287  and  _289
REMARK  120  A    between atoms: _289  and  _290
REMARK  121  A    between atoms: _289  and  _292
REMARK  122  A    between atoms: _292  and  _293
REMARK  123  A    between atoms: _293  and  _294
REMARK  124  A    between atoms: _294  and  _295
REMARK  125  A    between atoms: _304  and  _306
REMARK  126  A    between atoms: _306  and  _307
REMARK  127  A    between atoms: _306  and  _309
REMARK  128  A    between atoms: _309  and  _310
REMARK  129  A    between atoms: _316  and  _318
REMARK  130  A    between atoms: _318  and  _319
REMARK  131  A    between atoms: _321  and  _323
REMARK  132  A    between atoms: _323  and  _324
REMARK  133  A    between atoms: _323  and  _326
REMARK  134  A    between atoms: _326  and  _327
REMARK  135  A    between atoms: _329  and  _331
REMARK  136  A    between atoms: _331  and  _332
REMARK  137  A    between atoms: _331  and  _334
REMARK  138  A    between atoms: _334  and  _335
REMARK  139  A    between atoms: _337  and  _339
REMARK  140  A    between atoms: _339  and  _340
REMARK  141  A    between atoms: _339  and  _342
REMARK  142  A    between atoms: _342  and  _343
REMARK  143  A    between atoms: _343  and  _344
REMARK  144  A    between atoms: _344  and  _345
REMARK  145  A    between atoms: _354  and  _356
REMARK  146  A    between atoms: _356  and  _357
REMARK  147  A    between atoms: _356  and  _359
REMARK  148  A    between atoms: _359  and  _360
REMARK  149  A    between atoms: _360  and  _361
REMARK  150  A    between atoms: _363  and  _365
REMARK  151  A    between atoms: _365  and  _366
REMARK  152  A    between atoms: _368  and  _370
REMARK  153  A    between atoms: _370  and  _371
REMARK  154  A    between atoms: _373  and  _375
REMARK  155  A    between atoms: _375  and  _376
REMARK  156  A    between atoms: _375  and  _378
REMARK  157  A    between atoms: _378  and  _379
REMARK  158  A    between atoms: _382  and  _384
REMARK  159  A    between atoms: _384  and  _385
REMARK  160  A    between atoms: _384  and  _387
REMARK  161  A    between atoms: _390  and  _392
REMARK  162  A    between atoms: _392  and  _393
REMARK  163  A    between atoms: _392  and  _395
REMARK  164  A    between atoms: _395  and  _396
REMARK  165  A    between atoms: _396  and  _397
REMARK  166  A    between atoms: _400  and  _402
REMARK  167  A    between atoms: _402  and  _403
REMARK  168  A    between atoms: _402  and  _405
REMARK  169  A    between atoms: _405  and  _406
REMARK  170  A    between atoms: _411  and  _413
REMARK  171  A    between atoms: _413  and  _414
REMARK  172  A    between atoms: _413  and  _416
REMARK  173  A    between atoms: _416  and  _417
REMARK  174  A    between atoms: _420  and  _422
REMARK  175  A    between atoms: _422  and  _423
REMARK  176  A    between atoms: _422  and  _425
REMARK  177  A    between atoms: _425  and  _426
REMARK  178  A    between atoms: _426  and  _427
REMARK  179  A    between atoms: _429  and  _431
REMARK  180  A    between atoms: _431  and  _432
REMARK  181  A    between atoms: _431  and  _434
REMARK  182  A    between atoms: _434  and  _435
REMARK  183  A    between atoms: _438  and  _440
REMARK  184  A    between atoms: _440  and  _441
REMARK  185  A    between atoms: _440  and  _443
REMARK  186  A    between atoms: _443  and  _444
REMARK  187  A    between atoms: _444  and  _445
REMARK  188  A    between atoms: _445  and  _446
REMARK  189  A    between atoms: _455  and  _457
REMARK  190  A    between atoms: _457  and  _458
REMARK  191  A    between atoms: _457  and  _460
REMARK  192  A    between atoms: _460  and  _461
REMARK  193  A    between atoms: _463  and  _465
REMARK  194  A    between atoms: _465  and  _466
REMARK  195  A    between atoms: _465  and  _468
REMARK  196  A    between atoms: _468  and  _469
REMARK  197  A    between atoms: _474  and  _476
REMARK  198  A    between atoms: _476  and  _477
REMARK  199  A    between atoms: _476  and  _479
REMARK  200  A    between atoms: _479  and  _480
REMARK  201  A    between atoms: _482  and  _484
REMARK  202  A    between atoms: _484  and  _485
REMARK  203  A    between atoms: _484  and  _487
REMARK  204  A    between atoms: _487  and  _488
REMARK  205  A    between atoms: _488  and  _489
REMARK  206  A    between atoms: _489  and  _490
REMARK  207  A    between atoms: _490  and  _491
REMARK  208  A    between atoms: _495  and  _497
REMARK  209  A    between atoms: _497  and  _498
REMARK  210  A    between atoms: _497  and  _500
REMARK  211  A    between atoms: _500  and  _501
REMARK  212  A    between atoms: _504  and  _506
REMARK  213  A    between atoms: _506  and  _507
REMARK  214  A    between atoms: _506  and  _509
REMARK  215  A    between atoms: _509  and  _510
REMARK  216  A    between atoms: _516  and  _518
REMARK  217  A    between atoms: _518  and  _519
REMARK  218  A    between atoms: _518  and  _521
REMARK  219  A    between atoms: _521  and  _522
REMARK  220  A    between atoms: _522  and  _523
REMARK  221  A    between atoms: _523  and  _524
REMARK                            x       y       z     vdW  Elec       q    Type
REMARK                         _______ _______ _______ _____ _____    ______ ____
ROOT
ATOM      1  O   HOH     1      52.294  26.394  12.036  0.00  0.00    +0.000 OA
ENDROOT
TORSDOF 0
REMARK  Name = ../refined-set-2016/4bb9/4bb9_pocket.pdb
REMARK  221 active torsions:
REMARK  status: ('A' for Active; 'I' for Inactive)
REMARK    1  A    between atoms: _1  and  _3
REMARK    2  A    between atoms: _3  and  _4
REMARK    3  A    between atoms: _3  and  _6
REMARK    4  A    between atoms: _6  and  _7
REMARK    5  A    between atoms: _10  and  _12
REMARK    6  A    between atoms: _12  and  _13
REMARK    7  A    between atoms: _12  and  _15
REMARK    8  A    between atoms: _15  and  _16
REMARK    9  A    between atoms: _16  and  _17
REMARK   10  A    between atoms: _20  and  _22
REMARK   11  A    between atoms: _22  and  _23
REMARK   12  A    between atoms: _22  and  _25
REMARK   13  A    between atoms: _25  and  _26
REMARK   14  A    between atoms: _28  and  _30
REMARK   15  A    between atoms: _30  and  _31
REMARK   16  A    between atoms: _33  and  _35
REMARK   17  A    between atoms: _35  and  _36
REMARK   18  A    between atoms: _38  and  _40
REMARK   19  A    between atoms: _40  and  _41
REMARK   20  A    between atoms: _43  and  _45
REMARK   21  A    between atoms: _45  and  _46
REMARK   22  A    between atoms: _45  and  _48
REMARK   23  A    between atoms: _48  and  _49
REMARK   24  A    between atoms: _52  and  _54
REMARK   25  A    between atoms: _54  and  _55
REMARK   26  A    between atoms: _54  and  _57
REMARK   27  A    between atoms: _57  and  _58
REMARK   28  A    between atoms: _60  and  _62
REMARK   29  A    between atoms: _62  and  _63
REMARK   30  A    between atoms: _65  and  _67
REMARK   31  A    between atoms: _67  and  _68
REMARK   32  A    between atoms: _67  and  _70
REMARK   33  A    between atoms: _70  and  _71
REMARK   34  A    between atoms: _71  and  _72
REMARK   35  A    between atoms: _72  and  _73
REMARK   36  A    between atoms: _82  and  _84
REMARK   37  A    between atoms: _84  and  _85
REMARK   38  A    between atoms: _84  and  _87
REMARK   39  A    between atoms: _87  and  _88
REMARK   40  A    between atoms: _88  and  _89
REMARK   41  A    between atoms: _91  and  _93
REMARK   42  A    between atoms: _93  and  _94
REMARK   43  A    between atoms: _97  and  _99
REMARK   44  A    between atoms: _99  and  _100
REMARK   45  A    between atoms: _99  and  _102
REMARK   46  A    between atoms: _102  and  _103
REMARK   47  A    between atoms: _105  and  _107
REMARK   48  A    between atoms: _107  and  _108
REMARK   49  A    between atoms: _107  and  _110
REMARK   50  A    between atoms: _110  and  _111
REMARK   51  A    between atoms: _111  and  _112
REMARK   52  A    between atoms: _112  and  _113
REMARK   53  A    between atoms: _122  and  _124
REMARK   54  A    between atoms: _124  and  _125
REMARK   55  A    between atoms: _124  and  _127
REMARK   56  A    between atoms: _127  and  _128
REMARK   57  A    between atoms: _128  and  _129
REMARK   58  A    between atoms: _132  and  _134
REMARK   59  A    between atoms: _134  and  _135
REMARK   60  A    between atoms: _137  and  _139
REMARK   61  A    between atoms: _139  and  _140
REMARK   62  A    between atoms: _139  and  _142
REMARK   63  A    between atoms: _142  and  _143
REMARK   64  A    between atoms: _146  and  _148
REMARK   65  A    between atoms: _148  and  _149
REMARK   66  A    between atoms: _148  and  _151
REMARK   67  A    between atoms: _151  and  _152
REMARK   68  A    between atoms: _152  and  _153
REMARK   69  A    between atoms: _156  and  _158
REMARK   70  A    between atoms: _158  and  _159
REMARK   71  A    between atoms: _158  and  _161
REMARK   72  A    between atoms: _161  and  _162
REMARK   73  A    between atoms: _165  and  _167
REMARK   74  A    between atoms: _167  and  _168
REMARK   75  A    between atoms: _167  and  _170
REMARK   76  A    between atoms: _170  and  _171
REMARK   77  A    between atoms: _174  and  _176
REMARK   78  A    between atoms: _176  and  _177
REMARK   79  A    between atoms: _176  and  _179
REMARK   80  A    between atoms: _179  and  _180
REMARK   81  A    between atoms: _182  and  _184
REMARK   82  A    between atoms: _184  and  _185
REMARK   83  A    between atoms: _184  and  _187
REMARK   84  A    between atoms: _190  and  _192
REMARK   85  A    between atoms: _192  and  _193
REMARK   86  A    between atoms: _195  and  _197
REMARK   87  A    between atoms: _197  and  _198
REMARK   88  A    between atoms: _197  and  _200
REMARK   89  A    between atoms: _200  and  _201
REMARK   90  A    between atoms: _204  and  _206
REMARK   91  A    between atoms: _206  and  _207
REMARK   92  A    between atoms: _206  and  _209
REMARK   93  A    between atoms: _209  and  _210
REMARK   94  A    between atoms: _212  and  _214
REMARK   95  A    between atoms: _214  and  _215
REMARK   96  A    between atoms: _219  and  _220
REMARK   97  A    between atoms: _225  and  _227
REMARK   98  A    between atoms: _227  and  _228
REMARK   99  A    between atoms: _227  and  _230
REMARK  100  A    between atoms: _230  and  _231
REMARK  101  A    between atoms: _237  and  _239
REMARK  102  A    between atoms: _239  and  _240
REMARK  103  A    between atoms: _239  and  _242
REMARK  104  A    between atoms: _245  and  _247
REMARK  105  A    between atoms: _247  and  _248
REMARK  106  A    between atoms: _251  and  _253
REMARK  107  A    between atoms: _253  and  _254
REMARK  108  A    between atoms: _253  and  _256
REMARK  109  A    between atoms: _259  and  _261
REMARK  110  A    between atoms: _261  and  _262
REMARK  111  A    between atoms: _264  and  _266
REMARK  112  A    between atoms: _266  and  _267
REMARK  113  A    between atoms: _266  and  _269
REMARK  114  A    between atoms: _269  and  _270
REMARK  115  A    between atoms: _276  and  _278
REMARK  116  A    between atoms: _278  and  _279
REMARK  117  A    between atoms: _278  and  _281
REMARK  118  A    between atoms: _281  and  _282
REMARK  119  A    between atoms: _287  and  _289
REMARK  120  A    between atoms: _289  and  _290
REMARK  121  A    between atoms: _289  and  _292
REMARK  122  A    between atoms: _292  and  _293
REMARK  123  A    between atoms: _293  and  _294
REMARK  124  A    between atoms: _294  and  _295
REMARK  125  A    between atoms: _304  and  _306
REMARK  126  A    between atoms: _306  and  _307
REMARK  127  A    between atoms: _306  and  _309
REMARK  128  A    between atoms: _309  and  _310
REMARK  129  A    between atoms: _316  and  _318
REMARK  130  A    between atoms: _318  and  _319
REMARK  131  A    between atoms: _321  and  _323
REMARK  132  A    between atoms: _323  and  _324
REMARK  133  A    between atoms: _323  and  _326
REMARK  134  A    between atoms: _326  and  _327
REMARK  135  A    between atoms: _329  and  _331
REMARK  136  A    between atoms: _331  and  _332
REMARK  137  A    between atoms: _331  and  _334
REMARK  138  A    between atoms: _334  and  _335
REMARK  139  A    between atoms: _337  and  _339
REMARK  140  A    between atoms: _339  and  _340
REMARK  141  A    between atoms: _339  and  _342
REMARK  142  A    between atoms: _342  and  _343
REMARK  143  A    between atoms: _343  and  _344
REMARK  144  A    between atoms: _344  and  _345
REMARK  145  A    between atoms: _354  and  _356
REMARK  146  A    between atoms: _356  and  _357
REMARK  147  A    between atoms: _356  and  _359
REMARK  148  A    between atoms: _359  and  _360
REMARK  149  A    between atoms: _360  and  _361
REMARK  150  A    between atoms: _363  and  _365
REMARK  151  A    between atoms: _365  and  _366
REMARK  152  A    between atoms: _368  and  _370
REMARK  153  A    between atoms: _370  and  _371
REMARK  154  A    between atoms: _373  and  _375
REMARK  155  A    between atoms: _375  and  _376
REMARK  156  A    between atoms: _375  and  _378
REMARK  157  A    between atoms: _378  and  _379
REMARK  158  A    between atoms: _382  and  _384
REMARK  159  A    between atoms: _384  and  _385
REMARK  160  A    between atoms: _384  and  _387
REMARK  161  A    between atoms: _390  and  _392
REMARK  162  A    between atoms: _392  and  _393
REMARK  163  A    between atoms: _392  and  _395
REMARK  164  A    between atoms: _395  and  _396
REMARK  165  A    between atoms: _396  and  _397
REMARK  166  A    between atoms: _400  and  _402
REMARK  167  A    between atoms: _402  and  _403
REMARK  168  A    between atoms: _402  and  _405
REMARK  169  A    between atoms: _405  and  _406
REMARK  170  A    between atoms: _411  and  _413
REMARK  171  A    between atoms: _413  and  _414
REMARK  172  A    between atoms: _413  and  _416
REMARK  173  A    between atoms: _416  and  _417
REMARK  174  A    between atoms: _420  and  _422
REMARK  175  A    between atoms: _422  and  _423
REMARK  176  A    between atoms: _422  and  _425
REMARK  177  A    between atoms: _425  and  _426
REMARK  178  A    between atoms: _426  and  _427
REMARK  179  A    between atoms: _429  and  _431
REMARK  180  A    between atoms: _431  and  _432
REMARK  181  A    between atoms: _431  and  _434
REMARK  182  A    between atoms: _434  and  _435
REMARK  183  A    between atoms: _438  and  _440
REMARK  184  A    between atoms: _440  and  _441
REMARK  185  A    between atoms: _440  and  _443
REMARK  186  A    between atoms: _443  and  _444
REMARK  187  A    between atoms: _444  and  _445
REMARK  188  A    between atoms: _445  and  _446
REMARK  189  A    between atoms: _455  and  _457
REMARK  190  A    between atoms: _457  and  _458
REMARK  191  A    between atoms: _457  and  _460
REMARK  192  A    between atoms: _460  and  _461
REMARK  193  A    between atoms: _463  and  _465
REMARK  194  A    between atoms: _465  and  _466
REMARK  195  A    between atoms: _465  and  _468
REMARK  196  A    between atoms: _468  and  _469
REMARK  197  A    between atoms: _474  and  _476
REMARK  198  A    between atoms: _476  and  _477
REMARK  199  A    between atoms: _476  and  _479
REMARK  200  A    between atoms: _479  and  _480
REMARK  201  A    between atoms: _482  and  _484
REMARK  202  A    between atoms: _484  and  _485
REMARK  203  A    between atoms: _484  and  _487
REMARK  204  A    between atoms: _487  and  _488
REMARK  205  A    between atoms: _488  and  _489
REMARK  206  A    between atoms: _489  and  _490
REMARK  207  A    between atoms: _490  and  _491
REMARK  208  A    between atoms: _495  and  _497
REMARK  209  A    between atoms: _497  and  _498
REMARK  210  A    between atoms: _497  and  _500
REMARK  211  A    between atoms: _500  and  _501
REMARK  212  A    between atoms: _504  and  _506
REMARK  213  A    between atoms: _506  and  _507
REMARK  214  A    between atoms: _506  and  _509
REMARK  215  A    between atoms: _509  and  _510
REMARK  216  A    between atoms: _516  and  _518
REMARK  217  A    between atoms: _518  and  _519
REMARK  218  A    between atoms: _518  and  _521
REMARK  219  A    between atoms: _521  and  _522
REMARK  220  A    between atoms: _522  and  _523
REMARK  221  A    between atoms: _523  and  _524
REMARK                            x       y       z     vdW  Elec       q    Type
REMARK                         _______ _______ _______ _____ _____    ______ ____
ROOT
ATOM      1  O   HOH     1      52.587  28.474  15.260  0.00  0.00    +0.000 OA
ENDROOT
TORSDOF 0
REMARK  Name = ../refined-set-2016/4bb9/4bb9_pocket.pdb
REMARK  221 active torsions:
REMARK  status: ('A' for Active; 'I' for Inactive)
REMARK    1  A    between atoms: _1  and  _3
REMARK    2  A    between atoms: _3  and  _4
REMARK    3  A    between atoms: _3  and  _6
REMARK    4  A    between atoms: _6  and  _7
REMARK    5  A    between atoms: _10  and  _12
REMARK    6  A    between atoms: _12  and  _13
REMARK    7  A    between atoms: _12  and  _15
REMARK    8  A    between atoms: _15  and  _16
REMARK    9  A    between atoms: _16  and  _17
REMARK   10  A    between atoms: _20  and  _22
REMARK   11  A    between atoms: _22  and  _23
REMARK   12  A    between atoms: _22  and  _25
REMARK   13  A    between atoms: _25  and  _26
REMARK   14  A    between atoms: _28  and  _30
REMARK   15  A    between atoms: _30  and  _31
REMARK   16  A    between atoms: _33  and  _35
REMARK   17  A    between atoms: _35  and  _36
REMARK   18  A    between atoms: _38  and  _40
REMARK   19  A    between atoms: _40  and  _41
REMARK   20  A    between atoms: _43  and  _45
REMARK   21  A    between atoms: _45  and  _46
REMARK   22  A    between atoms: _45  and  _48
REMARK   23  A    between atoms: _48  and  _49
REMARK   24  A    between atoms: _52  and  _54
REMARK   25  A    between atoms: _54  and  _55
REMARK   26  A    between atoms: _54  and  _57
REMARK   27  A    between atoms: _57  and  _58
REMARK   28  A    between atoms: _60  and  _62
REMARK   29  A    between atoms: _62  and  _63
REMARK   30  A    between atoms: _65  and  _67
REMARK   31  A    between atoms: _67  and  _68
REMARK   32  A    between atoms: _67  and  _70
REMARK   33  A    between atoms: _70  and  _71
REMARK   34  A    between atoms: _71  and  _72
REMARK   35  A    between atoms: _72  and  _73
REMARK   36  A    between atoms: _82  and  _84
REMARK   37  A    between atoms: _84  and  _85
REMARK   38  A    between atoms: _84  and  _87
REMARK   39  A    between atoms: _87  and  _88
REMARK   40  A    between atoms: _88  and  _89
REMARK   41  A    between atoms: _91  and  _93
REMARK   42  A    between atoms: _93  and  _94
REMARK   43  A    between atoms: _97  and  _99
REMARK   44  A    between atoms: _99  and  _100
REMARK   45  A    between atoms: _99  and  _102
REMARK   46  A    between atoms: _102  and  _103
REMARK   47  A    between atoms: _105  and  _107
REMARK   48  A    between atoms: _107  and  _108
REMARK   49  A    between atoms: _107  and  _110
REMARK   50  A    between atoms: _110  and  _111
REMARK   51  A    between atoms: _111  and  _112
REMARK   52  A    between atoms: _112  and  _113
REMARK   53  A    between atoms: _122  and  _124
REMARK   54  A    between atoms: _124  and  _125
REMARK   55  A    between atoms: _124  and  _127
REMARK   56  A    between atoms: _127  and  _128
REMARK   57  A    between atoms: _128  and  _129
REMARK   58  A    between atoms: _132  and  _134
REMARK   59  A    between atoms: _134  and  _135
REMARK   60  A    between atoms: _137  and  _139
REMARK   61  A    between atoms: _139  and  _140
REMARK   62  A    between atoms: _139  and  _142
REMARK   63  A    between atoms: _142  and  _143
REMARK   64  A    between atoms: _146  and  _148
REMARK   65  A    between atoms: _148  and  _149
REMARK   66  A    between atoms: _148  and  _151
REMARK   67  A    between atoms: _151  and  _152
REMARK   68  A    between atoms: _152  and  _153
REMARK   69  A    between atoms: _156  and  _158
REMARK   70  A    between atoms: _158  and  _159
REMARK   71  A    between atoms: _158  and  _161
REMARK   72  A    between atoms: _161  and  _162
REMARK   73  A    between atoms: _165  and  _167
REMARK   74  A    between atoms: _167  and  _168
REMARK   75  A    between atoms: _167  and  _170
REMARK   76  A    between atoms: _170  and  _171
REMARK   77  A    between atoms: _174  and  _176
REMARK   78  A    between atoms: _176  and  _177
REMARK   79  A    between atoms: _176  and  _179
REMARK   80  A    between atoms: _179  and  _180
REMARK   81  A    between atoms: _182  and  _184
REMARK   82  A    between atoms: _184  and  _185
REMARK   83  A    between atoms: _184  and  _187
REMARK   84  A    between atoms: _190  and  _192
REMARK   85  A    between atoms: _192  and  _193
REMARK   86  A    between atoms: _195  and  _197
REMARK   87  A    between atoms: _197  and  _198
REMARK   88  A    between atoms: _197  and  _200
REMARK   89  A    between atoms: _200  and  _201
REMARK   90  A    between atoms: _204  and  _206
REMARK   91  A    between atoms: _206  and  _207
REMARK   92  A    between atoms: _206  and  _209
REMARK   93  A    between atoms: _209  and  _210
REMARK   94  A    between atoms: _212  and  _214
REMARK   95  A    between atoms: _214  and  _215
REMARK   96  A    between atoms: _219  and  _220
REMARK   97  A    between atoms: _225  and  _227
REMARK   98  A    between atoms: _227  and  _228
REMARK   99  A    between atoms: _227  and  _230
REMARK  100  A    between atoms: _230  and  _231
REMARK  101  A    between atoms: _237  and  _239
REMARK  102  A    between atoms: _239  and  _240
REMARK  103  A    between atoms: _239  and  _242
REMARK  104  A    between atoms: _245  and  _247
REMARK  105  A    between atoms: _247  and  _248
REMARK  106  A    between atoms: _251  and  _253
REMARK  107  A    between atoms: _253  and  _254
REMARK  108  A    between atoms: _253  and  _256
REMARK  109  A    between atoms: _259  and  _261
REMARK  110  A    between atoms: _261  and  _262
REMARK  111  A    between atoms: _264  and  _266
REMARK  112  A    between atoms: _266  and  _267
REMARK  113  A    between atoms: _266  and  _269
REMARK  114  A    between atoms: _269  and  _270
REMARK  115  A    between atoms: _276  and  _278
REMARK  116  A    between atoms: _278  and  _279
REMARK  117  A    between atoms: _278  and  _281
REMARK  118  A    between atoms: _281  and  _282
REMARK  119  A    between atoms: _287  and  _289
REMARK  120  A    between atoms: _289  and  _290
REMARK  121  A    between atoms: _289  and  _292
REMARK  122  A    between atoms: _292  and  _293
REMARK  123  A    between atoms: _293  and  _294
REMARK  124  A    between atoms: _294  and  _295
REMARK  125  A    between atoms: _304  and  _306
REMARK  126  A    between atoms: _306  and  _307
REMARK  127  A    between atoms: _306  and  _309
REMARK  128  A    between atoms: _309  and  _310
REMARK  129  A    between atoms: _316  and  _318
REMARK  130  A    between atoms: _318  and  _319
REMARK  131  A    between atoms: _321  and  _323
REMARK  132  A    between atoms: _323  and  _324
REMARK  133  A    between atoms: _323  and  _326
REMARK  134  A    between atoms: _326  and  _327
REMARK  135  A    between atoms: _329  and  _331
REMARK  136  A    between atoms: _331  and  _332
REMARK  137  A    between atoms: _331  and  _334
REMARK  138  A    between atoms: _334  and  _335
REMARK  139  A    between atoms: _337  and  _339
REMARK  140  A    between atoms: _339  and  _340
REMARK  141  A    between atoms: _339  and  _342
REMARK  142  A    between atoms: _342  and  _343
REMARK  143  A    between atoms: _343  and  _344
REMARK  144  A    between atoms: _344  and  _345
REMARK  145  A    between atoms: _354  and  _356
REMARK  146  A    between atoms: _356  and  _357
REMARK  147  A    between atoms: _356  and  _359
REMARK  148  A    between atoms: _359  and  _360
REMARK  149  A    between atoms: _360  and  _361
REMARK  150  A    between atoms: _363  and  _365
REMARK  151  A    between atoms: _365  and  _366
REMARK  152  A    between atoms: _368  and  _370
REMARK  153  A    between atoms: _370  and  _371
REMARK  154  A    between atoms: _373  and  _375
REMARK  155  A    between atoms: _375  and  _376
REMARK  156  A    between atoms: _375  and  _378
REMARK  157  A    between atoms: _378  and  _379
REMARK  158  A    between atoms: _382  and  _384
REMARK  159  A    between atoms: _384  and  _385
REMARK  160  A    between atoms: _384  and  _387
REMARK  161  A    between atoms: _390  and  _392
REMARK  162  A    between atoms: _392  and  _393
REMARK  163  A    between atoms: _392  and  _395
REMARK  164  A    between atoms: _395  and  _396
REMARK  165  A    between atoms: _396  and  _397
REMARK  166  A    between atoms: _400  and  _402
REMARK  167  A    between atoms: _402  and  _403
REMARK  168  A    between atoms: _402  and  _405
REMARK  169  A    between atoms: _405  and  _406
REMARK  170  A    between atoms: _411  and  _413
REMARK  171  A    between atoms: _413  and  _414
REMARK  172  A    between atoms: _413  and  _416
REMARK  173  A    between atoms: _416  and  _417
REMARK  174  A    between atoms: _420  and  _422
REMARK  175  A    between atoms: _422  and  _423
REMARK  176  A    between atoms: _422  and  _425
REMARK  177  A    between atoms: _425  and  _426
REMARK  178  A    between atoms: _426  and  _427
REMARK  179  A    between atoms: _429  and  _431
REMARK  180  A    between atoms: _431  and  _432
REMARK  181  A    between atoms: _431  and  _434
REMARK  182  A    between atoms: _434  and  _435
REMARK  183  A    between atoms: _438  and  _440
REMARK  184  A    between atoms: _440  and  _441
REMARK  185  A    between atoms: _440  and  _443
REMARK  186  A    between atoms: _443  and  _444
REMARK  187  A    between atoms: _444  and  _445
REMARK  188  A    between atoms: _445  and  _446
REMARK  189  A    between atoms: _455  and  _457
REMARK  190  A    between atoms: _457  and  _458
REMARK  191  A    between atoms: _457  and  _460
REMARK  192  A    between atoms: _460  and  _461
REMARK  193  A    between atoms: _463  and  _465
REMARK  194  A    between atoms: _465  and  _466
REMARK  195  A    between atoms: _465  and  _468
REMARK  196  A    between atoms: _468  and  _469
REMARK  197  A    between atoms: _474  and  _476
REMARK  198  A    between atoms: _476  and  _477
REMARK  199  A    between atoms: _476  and  _479
REMARK  200  A    between atoms: _479  and  _480
REMARK  201  A    between atoms: _482  and  _484
REMARK  202  A    between atoms: _484  and  _485
REMARK  203  A    between atoms: _484  and  _487
REMARK  204  A    between atoms: _487  and  _488
REMARK  205  A    between atoms: _488  and  _489
REMARK  206  A    between atoms: _489  and  _490
REMARK  207  A    between atoms: _490  and  _491
REMARK  208  A    between atoms: _495  and  _497
REMARK  209  A    between atoms: _497  and  _498
REMARK  210  A    between atoms: _497  and  _500
REMARK  211  A    between atoms: _500  and  _501
REMARK  212  A    between atoms: _504  and  _506
REMARK  213  A    between atoms: _506  and  _507
REMARK  214  A    between atoms: _506  and  _509
REMARK  215  A    between atoms: _509  and  _510
REMARK  216  A    between atoms: _516  and  _518
REMARK  217  A    between atoms: _518  and  _519
REMARK  218  A    between atoms: _518  and  _521
REMARK  219  A    between atoms: _521  and  _522
REMARK  220  A    between atoms: _522  and  _523
REMARK  221  A    between atoms: _523  and  _524
REMARK                            x       y       z     vdW  Elec       q    Type
REMARK                         _______ _______ _______ _____ _____    ______ ____
ROOT
ATOM      1  O   HOH     1      54.759  23.081  20.598  0.00  0.00    +0.000 OA
ENDROOT
TORSDOF 0
REMARK  Name = ../refined-set-2016/4bb9/4bb9_pocket.pdb
REMARK  221 active torsions:
REMARK  status: ('A' for Active; 'I' for Inactive)
REMARK    1  A    between atoms: _1  and  _3
REMARK    2  A    between atoms: _3  and  _4
REMARK    3  A    between atoms: _3  and  _6
REMARK    4  A    between atoms: _6  and  _7
REMARK    5  A    between atoms: _10  and  _12
REMARK    6  A    between atoms: _12  and  _13
REMARK    7  A    between atoms: _12  and  _15
REMARK    8  A    between atoms: _15  and  _16
REMARK    9  A    between atoms: _16  and  _17
REMARK   10  A    between atoms: _20  and  _22
REMARK   11  A    between atoms: _22  and  _23
REMARK   12  A    between atoms: _22  and  _25
REMARK   13  A    between atoms: _25  and  _26
REMARK   14  A    between atoms: _28  and  _30
REMARK   15  A    between atoms: _30  and  _31
REMARK   16  A    between atoms: _33  and  _35
REMARK   17  A    between atoms: _35  and  _36
REMARK   18  A    between atoms: _38  and  _40
REMARK   19  A    between atoms: _40  and  _41
REMARK   20  A    between atoms: _43  and  _45
REMARK   21  A    between atoms: _45  and  _46
REMARK   22  A    between atoms: _45  and  _48
REMARK   23  A    between atoms: _48  and  _49
REMARK   24  A    between atoms: _52  and  _54
REMARK   25  A    between atoms: _54  and  _55
REMARK   26  A    between atoms: _54  and  _57
REMARK   27  A    between atoms: _57  and  _58
REMARK   28  A    between atoms: _60  and  _62
REMARK   29  A    between atoms: _62  and  _63
REMARK   30  A    between atoms: _65  and  _67
REMARK   31  A    between atoms: _67  and  _68
REMARK   32  A    between atoms: _67  and  _70
REMARK   33  A    between atoms: _70  and  _71
REMARK   34  A    between atoms: _71  and  _72
REMARK   35  A    between atoms: _72  and  _73
REMARK   36  A    between atoms: _82  and  _84
REMARK   37  A    between atoms: _84  and  _85
REMARK   38  A    between atoms: _84  and  _87
REMARK   39  A    between atoms: _87  and  _88
REMARK   40  A    between atoms: _88  and  _89
REMARK   41  A    between atoms: _91  and  _93
REMARK   42  A    between atoms: _93  and  _94
REMARK   43  A    between atoms: _97  and  _99
REMARK   44  A    between atoms: _99  and  _100
REMARK   45  A    between atoms: _99  and  _102
REMARK   46  A    between atoms: _102  and  _103
REMARK   47  A    between atoms: _105  and  _107
REMARK   48  A    between atoms: _107  and  _108
REMARK   49  A    between atoms: _107  and  _110
REMARK   50  A    between atoms: _110  and  _111
REMARK   51  A    between atoms: _111  and  _112
REMARK   52  A    between atoms: _112  and  _113
REMARK   53  A    between atoms: _122  and  _124
REMARK   54  A    between atoms: _124  and  _125
REMARK   55  A    between atoms: _124  and  _127
REMARK   56  A    between atoms: _127  and  _128
REMARK   57  A    between atoms: _128  and  _129
REMARK   58  A    between atoms: _132  and  _134
REMARK   59  A    between atoms: _134  and  _135
REMARK   60  A    between atoms: _137  and  _139
REMARK   61  A    between atoms: _139  and  _140
REMARK   62  A    between atoms: _139  and  _142
REMARK   63  A    between atoms: _142  and  _143
REMARK   64  A    between atoms: _146  and  _148
REMARK   65  A    between atoms: _148  and  _149
REMARK   66  A    between atoms: _148  and  _151
REMARK   67  A    between atoms: _151  and  _152
REMARK   68  A    between atoms: _152  and  _153
REMARK   69  A    between atoms: _156  and  _158
REMARK   70  A    between atoms: _158  and  _159
REMARK   71  A    between atoms: _158  and  _161
REMARK   72  A    between atoms: _161  and  _162
REMARK   73  A    between atoms: _165  and  _167
REMARK   74  A    between atoms: _167  and  _168
REMARK   75  A    between atoms: _167  and  _170
REMARK   76  A    between atoms: _170  and  _171
REMARK   77  A    between atoms: _174  and  _176
REMARK   78  A    between atoms: _176  and  _177
REMARK   79  A    between atoms: _176  and  _179
REMARK   80  A    between atoms: _179  and  _180
REMARK   81  A    between atoms: _182  and  _184
REMARK   82  A    between atoms: _184  and  _185
REMARK   83  A    between atoms: _184  and  _187
REMARK   84  A    between atoms: _190  and  _192
REMARK   85  A    between atoms: _192  and  _193
REMARK   86  A    between atoms: _195  and  _197
REMARK   87  A    between atoms: _197  and  _198
REMARK   88  A    between atoms: _197  and  _200
REMARK   89  A    between atoms: _200  and  _201
REMARK   90  A    between atoms: _204  and  _206
REMARK   91  A    between atoms: _206  and  _207
REMARK   92  A    between atoms: _206  and  _209
REMARK   93  A    between atoms: _209  and  _210
REMARK   94  A    between atoms: _212  and  _214
REMARK   95  A    between atoms: _214  and  _215
REMARK   96  A    between atoms: _219  and  _220
REMARK   97  A    between atoms: _225  and  _227
REMARK   98  A    between atoms: _227  and  _228
REMARK   99  A    between atoms: _227  and  _230
REMARK  100  A    between atoms: _230  and  _231
REMARK  101  A    between atoms: _237  and  _239
REMARK  102  A    between atoms: _239  and  _240
REMARK  103  A    between atoms: _239  and  _242
REMARK  104  A    between atoms: _245  and  _247
REMARK  105  A    between atoms: _247  and  _248
REMARK  106  A    between atoms: _251  and  _253
REMARK  107  A    between atoms: _253  and  _254
REMARK  108  A    between atoms: _253  and  _256
REMARK  109  A    between atoms: _259  and  _261
REMARK  110  A    between atoms: _261  and  _262
REMARK  111  A    between atoms: _264  and  _266
REMARK  112  A    between atoms: _266  and  _267
REMARK  113  A    between atoms: _266  and  _269
REMARK  114  A    between atoms: _269  and  _270
REMARK  115  A    between atoms: _276  and  _278
REMARK  116  A    between atoms: _278  and  _279
REMARK  117  A    between atoms: _278  and  _281
REMARK  118  A    between atoms: _281  and  _282
REMARK  119  A    between atoms: _287  and  _289
REMARK  120  A    between atoms: _289  and  _290
REMARK  121  A    between atoms: _289  and  _292
REMARK  122  A    between atoms: _292  and  _293
REMARK  123  A    between atoms: _293  and  _294
REMARK  124  A    between atoms: _294  and  _295
REMARK  125  A    between atoms: _304  and  _306
REMARK  126  A    between atoms: _306  and  _307
REMARK  127  A    between atoms: _306  and  _309
REMARK  128  A    between atoms: _309  and  _310
REMARK  129  A    between atoms: _316  and  _318
REMARK  130  A    between atoms: _318  and  _319
REMARK  131  A    between atoms: _321  and  _323
REMARK  132  A    between atoms: _323  and  _324
REMARK  133  A    between atoms: _323  and  _326
REMARK  134  A    between atoms: _326  and  _327
REMARK  135  A    between atoms: _329  and  _331
REMARK  136  A    between atoms: _331  and  _332
REMARK  137  A    between atoms: _331  and  _334
REMARK  138  A    between atoms: _334  and  _335
REMARK  139  A    between atoms: _337  and  _339
REMARK  140  A    between atoms: _339  and  _340
REMARK  141  A    between atoms: _339  and  _342
REMARK  142  A    between atoms: _342  and  _343
REMARK  143  A    between atoms: _343  and  _344
REMARK  144  A    between atoms: _344  and  _345
REMARK  145  A    between atoms: _354  and  _356
REMARK  146  A    between atoms: _356  and  _357
REMARK  147  A    between atoms: _356  and  _359
REMARK  148  A    between atoms: _359  and  _360
REMARK  149  A    between atoms: _360  and  _361
REMARK  150  A    between atoms: _363  and  _365
REMARK  151  A    between atoms: _365  and  _366
REMARK  152  A    between atoms: _368  and  _370
REMARK  153  A    between atoms: _370  and  _371
REMARK  154  A    between atoms: _373  and  _375
REMARK  155  A    between atoms: _375  and  _376
REMARK  156  A    between atoms: _375  and  _378
REMARK  157  A    between atoms: _378  and  _379
REMARK  158  A    between atoms: _382  and  _384
REMARK  159  A    between atoms: _384  and  _385
REMARK  160  A    between atoms: _384  and  _387
REMARK  161  A    between atoms: _390  and  _392
REMARK  162  A    between atoms: _392  and  _393
REMARK  163  A    between atoms: _392  and  _395
REMARK  164  A    between atoms: _395  and  _396
REMARK  165  A    between atoms: _396  and  _397
REMARK  166  A    between atoms: _400  and  _402
REMARK  167  A    between atoms: _402  and  _403
REMARK  168  A    between atoms: _402  and  _405
REMARK  169  A    between atoms: _405  and  _406
REMARK  170  A    between atoms: _411  and  _413
REMARK  171  A    between atoms: _413  and  _414
REMARK  172  A    between atoms: _413  and  _416
REMARK  173  A    between atoms: _416  and  _417
REMARK  174  A    between atoms: _420  and  _422
REMARK  175  A    between atoms: _422  and  _423
REMARK  176  A    between atoms: _422  and  _425
REMARK  177  A    between atoms: _425  and  _426
REMARK  178  A    between atoms: _426  and  _427
REMARK  179  A    between atoms: _429  and  _431
REMARK  180  A    between atoms: _431  and  _432
REMARK  181  A    between atoms: _431  and  _434
REMARK  182  A    between atoms: _434  and  _435
REMARK  183  A    between atoms: _438  and  _440
REMARK  184  A    between atoms: _440  and  _441
REMARK  185  A    between atoms: _440  and  _443
REMARK  186  A    between atoms: _443  and  _444
REMARK  187  A    between atoms: _444  and  _445
REMARK  188  A    between atoms: _445  and  _446
REMARK  189  A    between atoms: _455  and  _457
REMARK  190  A    between atoms: _457  and  _458
REMARK  191  A    between atoms: _457  and  _460
REMARK  192  A    between atoms: _460  and  _461
REMARK  193  A    between atoms: _463  and  _465
REMARK  194  A    between atoms: _465  and  _466
REMARK  195  A    between atoms: _465  and  _468
REMARK  196  A    between atoms: _468  and  _469
REMARK  197  A    between atoms: _474  and  _476
REMARK  198  A    between atoms: _476  and  _477
REMARK  199  A    between atoms: _476  and  _479
REMARK  200  A    between atoms: _479  and  _480
REMARK  201  A    between atoms: _482  and  _484
REMARK  202  A    between atoms: _484  and  _485
REMARK  203  A    between atoms: _484  and  _487
REMARK  204  A    between atoms: _487  and  _488
REMARK  205  A    between atoms: _488  and  _489
REMARK  206  A    between atoms: _489  and  _490
REMARK  207  A    between atoms: _490  and  _491
REMARK  208  A    between atoms: _495  and  _497
REMARK  209  A    between atoms: _497  and  _498
REMARK  210  A    between atoms: _497  and  _500
REMARK  211  A    between atoms: _500  and  _501
REMARK  212  A    between atoms: _504  and  _506
REMARK  213  A    between atoms: _506  and  _507
REMARK  214  A    between atoms: _506  and  _509
REMARK  215  A    between atoms: _509  and  _510
REMARK  216  A    between atoms: _516  and  _518
REMARK  217  A    between atoms: _518  and  _519
REMARK  218  A    between atoms: _518  and  _521
REMARK  219  A    between atoms: _521  and  _522
REMARK  220  A    between atoms: _522  and  _523
REMARK  221  A    between atoms: _523  and  _524
REMARK                            x       y       z     vdW  Elec       q    Type
REMARK                         _______ _______ _______ _____ _____    ______ ____
ROOT
ATOM      1  O   HOH     1      52.591  24.008  19.291  0.00  0.00    +0.000 OA
ENDROOT
TORSDOF 0
REMARK  Name = ../refined-set-2016/4bb9/4bb9_pocket.pdb
REMARK  221 active torsions:
REMARK  status: ('A' for Active; 'I' for Inactive)
REMARK    1  A    between atoms: _1  and  _3
REMARK    2  A    between atoms: _3  and  _4
REMARK    3  A    between atoms: _3  and  _6
REMARK    4  A    between atoms: _6  and  _7
REMARK    5  A    between atoms: _10  and  _12
REMARK    6  A    between atoms: _12  and  _13
REMARK    7  A    between atoms: _12  and  _15
REMARK    8  A    between atoms: _15  and  _16
REMARK    9  A    between atoms: _16  and  _17
REMARK   10  A    between atoms: _20  and  _22
REMARK   11  A    between atoms: _22  and  _23
REMARK   12  A    between atoms: _22  and  _25
REMARK   13  A    between atoms: _25  and  _26
REMARK   14  A    between atoms: _28  and  _30
REMARK   15  A    between atoms: _30  and  _31
REMARK   16  A    between atoms: _33  and  _35
REMARK   17  A    between atoms: _35  and  _36
REMARK   18  A    between atoms: _38  and  _40
REMARK   19  A    between atoms: _40  and  _41
REMARK   20  A    between atoms: _43  and  _45
REMARK   21  A    between atoms: _45  and  _46
REMARK   22  A    between atoms: _45  and  _48
REMARK   23  A    between atoms: _48  and  _49
REMARK   24  A    between atoms: _52  and  _54
REMARK   25  A    between atoms: _54  and  _55
REMARK   26  A    between atoms: _54  and  _57
REMARK   27  A    between atoms: _57  and  _58
REMARK   28  A    between atoms: _60  and  _62
REMARK   29  A    between atoms: _62  and  _63
REMARK   30  A    between atoms: _65  and  _67
REMARK   31  A    between atoms: _67  and  _68
REMARK   32  A    between atoms: _67  and  _70
REMARK   33  A    between atoms: _70  and  _71
REMARK   34  A    between atoms: _71  and  _72
REMARK   35  A    between atoms: _72  and  _73
REMARK   36  A    between atoms: _82  and  _84
REMARK   37  A    between atoms: _84  and  _85
REMARK   38  A    between atoms: _84  and  _87
REMARK   39  A    between atoms: _87  and  _88
REMARK   40  A    between atoms: _88  and  _89
REMARK   41  A    between atoms: _91  and  _93
REMARK   42  A    between atoms: _93  and  _94
REMARK   43  A    between atoms: _97  and  _99
REMARK   44  A    between atoms: _99  and  _100
REMARK   45  A    between atoms: _99  and  _102
REMARK   46  A    between atoms: _102  and  _103
REMARK   47  A    between atoms: _105  and  _107
REMARK   48  A    between atoms: _107  and  _108
REMARK   49  A    between atoms: _107  and  _110
REMARK   50  A    between atoms: _110  and  _111
REMARK   51  A    between atoms: _111  and  _112
REMARK   52  A    between atoms: _112  and  _113
REMARK   53  A    between atoms: _122  and  _124
REMARK   54  A    between atoms: _124  and  _125
REMARK   55  A    between atoms: _124  and  _127
REMARK   56  A    between atoms: _127  and  _128
REMARK   57  A    between atoms: _128  and  _129
REMARK   58  A    between atoms: _132  and  _134
REMARK   59  A    between atoms: _134  and  _135
REMARK   60  A    between atoms: _137  and  _139
REMARK   61  A    between atoms: _139  and  _140
REMARK   62  A    between atoms: _139  and  _142
REMARK   63  A    between atoms: _142  and  _143
REMARK   64  A    between atoms: _146  and  _148
REMARK   65  A    between atoms: _148  and  _149
REMARK   66  A    between atoms: _148  and  _151
REMARK   67  A    between atoms: _151  and  _152
REMARK   68  A    between atoms: _152  and  _153
REMARK   69  A    between atoms: _156  and  _158
REMARK   70  A    between atoms: _158  and  _159
REMARK   71  A    between atoms: _158  and  _161
REMARK   72  A    between atoms: _161  and  _162
REMARK   73  A    between atoms: _165  and  _167
REMARK   74  A    between atoms: _167  and  _168
REMARK   75  A    between atoms: _167  and  _170
REMARK   76  A    between atoms: _170  and  _171
REMARK   77  A    between atoms: _174  and  _176
REMARK   78  A    between atoms: _176  and  _177
REMARK   79  A    between atoms: _176  and  _179
REMARK   80  A    between atoms: _179  and  _180
REMARK   81  A    between atoms: _182  and  _184
REMARK   82  A    between atoms: _184  and  _185
REMARK   83  A    between atoms: _184  and  _187
REMARK   84  A    between atoms: _190  and  _192
REMARK   85  A    between atoms: _192  and  _193
REMARK   86  A    between atoms: _195  and  _197
REMARK   87  A    between atoms: _197  and  _198
REMARK   88  A    between atoms: _197  and  _200
REMARK   89  A    between atoms: _200  and  _201
REMARK   90  A    between atoms: _204  and  _206
REMARK   91  A    between atoms: _206  and  _207
REMARK   92  A    between atoms: _206  and  _209
REMARK   93  A    between atoms: _209  and  _210
REMARK   94  A    between atoms: _212  and  _214
REMARK   95  A    between atoms: _214  and  _215
REMARK   96  A    between atoms: _219  and  _220
REMARK   97  A    between atoms: _225  and  _227
REMARK   98  A    between atoms: _227  and  _228
REMARK   99  A    between atoms: _227  and  _230
REMARK  100  A    between atoms: _230  and  _231
REMARK  101  A    between atoms: _237  and  _239
REMARK  102  A    between atoms: _239  and  _240
REMARK  103  A    between atoms: _239  and  _242
REMARK  104  A    between atoms: _245  and  _247
REMARK  105  A    between atoms: _247  and  _248
REMARK  106  A    between atoms: _251  and  _253
REMARK  107  A    between atoms: _253  and  _254
REMARK  108  A    between atoms: _253  and  _256
REMARK  109  A    between atoms: _259  and  _261
REMARK  110  A    between atoms: _261  and  _262
REMARK  111  A    between atoms: _264  and  _266
REMARK  112  A    between atoms: _266  and  _267
REMARK  113  A    between atoms: _266  and  _269
REMARK  114  A    between atoms: _269  and  _270
REMARK  115  A    between atoms: _276  and  _278
REMARK  116  A    between atoms: _278  and  _279
REMARK  117  A    between atoms: _278  and  _281
REMARK  118  A    between atoms: _281  and  _282
REMARK  119  A    between atoms: _287  and  _289
REMARK  120  A    between atoms: _289  and  _290
REMARK  121  A    between atoms: _289  and  _292
REMARK  122  A    between atoms: _292  and  _293
REMARK  123  A    between atoms: _293  and  _294
REMARK  124  A    between atoms: _294  and  _295
REMARK  125  A    between atoms: _304  and  _306
REMARK  126  A    between atoms: _306  and  _307
REMARK  127  A    between atoms: _306  and  _309
REMARK  128  A    between atoms: _309  and  _310
REMARK  129  A    between atoms: _316  and  _318
REMARK  130  A    between atoms: _318  and  _319
REMARK  131  A    between atoms: _321  and  _323
REMARK  132  A    between atoms: _323  and  _324
REMARK  133  A    between atoms: _323  and  _326
REMARK  134  A    between atoms: _326  and  _327
REMARK  135  A    between atoms: _329  and  _331
REMARK  136  A    between atoms: _331  and  _332
REMARK  137  A    between atoms: _331  and  _334
REMARK  138  A    between atoms: _334  and  _335
REMARK  139  A    between atoms: _337  and  _339
REMARK  140  A    between atoms: _339  and  _340
REMARK  141  A    between atoms: _339  and  _342
REMARK  142  A    between atoms: _342  and  _343
REMARK  143  A    between atoms: _343  and  _344
REMARK  144  A    between atoms: _344  and  _345
REMARK  145  A    between atoms: _354  and  _356
REMARK  146  A    between atoms: _356  and  _357
REMARK  147  A    between atoms: _356  and  _359
REMARK  148  A    between atoms: _359  and  _360
REMARK  149  A    between atoms: _360  and  _361
REMARK  150  A    between atoms: _363  and  _365
REMARK  151  A    between atoms: _365  and  _366
REMARK  152  A    between atoms: _368  and  _370
REMARK  153  A    between atoms: _370  and  _371
REMARK  154  A    between atoms: _373  and  _375
REMARK  155  A    between atoms: _375  and  _376
REMARK  156  A    between atoms: _375  and  _378
REMARK  157  A    between atoms: _378  and  _379
REMARK  158  A    between atoms: _382  and  _384
REMARK  159  A    between atoms: _384  and  _385
REMARK  160  A    between atoms: _384  and  _387
REMARK  161  A    between atoms: _390  and  _392
REMARK  162  A    between atoms: _392  and  _393
REMARK  163  A    between atoms: _392  and  _395
REMARK  164  A    between atoms: _395  and  _396
REMARK  165  A    between atoms: _396  and  _397
REMARK  166  A    between atoms: _400  and  _402
REMARK  167  A    between atoms: _402  and  _403
REMARK  168  A    between atoms: _402  and  _405
REMARK  169  A    between atoms: _405  and  _406
REMARK  170  A    between atoms: _411  and  _413
REMARK  171  A    between atoms: _413  and  _414
REMARK  172  A    between atoms: _413  and  _416
REMARK  173  A    between atoms: _416  and  _417
REMARK  174  A    between atoms: _420  and  _422
REMARK  175  A    between atoms: _422  and  _423
REMARK  176  A    between atoms: _422  and  _425
REMARK  177  A    between atoms: _425  and  _426
REMARK  178  A    between atoms: _426  and  _427
REMARK  179  A    between atoms: _429  and  _431
REMARK  180  A    between atoms: _431  and  _432
REMARK  181  A    between atoms: _431  and  _434
REMARK  182  A    between atoms: _434  and  _435
REMARK  183  A    between atoms: _438  and  _440
REMARK  184  A    between atoms: _440  and  _441
REMARK  185  A    between atoms: _440  and  _443
REMARK  186  A    between atoms: _443  and  _444
REMARK  187  A    between atoms: _444  and  _445
REMARK  188  A    between atoms: _445  and  _446
REMARK  189  A    between atoms: _455  and  _457
REMARK  190  A    between atoms: _457  and  _458
REMARK  191  A    between atoms: _457  and  _460
REMARK  192  A    between atoms: _460  and  _461
REMARK  193  A    between atoms: _463  and  _465
REMARK  194  A    between atoms: _465  and  _466
REMARK  195  A    between atoms: _465  and  _468
REMARK  196  A    between atoms: _468  and  _469
REMARK  197  A    between atoms: _474  and  _476
REMARK  198  A    between atoms: _476  and  _477
REMARK  199  A    between atoms: _476  and  _479
REMARK  200  A    between atoms: _479  and  _480
REMARK  201  A    between atoms: _482  and  _484
REMARK  202  A    between atoms: _484  and  _485
REMARK  203  A    between atoms: _484  and  _487
REMARK  204  A    between atoms: _487  and  _488
REMARK  205  A    between atoms: _488  and  _489
REMARK  206  A    between atoms: _489  and  _490
REMARK  207  A    between atoms: _490  and  _491
REMARK  208  A    between atoms: _495  and  _497
REMARK  209  A    between atoms: _497  and  _498
REMARK  210  A    between atoms: _497  and  _500
REMARK  211  A    between atoms: _500  and  _501
REMARK  212  A    between atoms: _504  and  _506
REMARK  213  A    between atoms: _506  and  _507
REMARK  214  A    between atoms: _506  and  _509
REMARK  215  A    between atoms: _509  and  _510
REMARK  216  A    between atoms: _516  and  _518
REMARK  217  A    between atoms: _518  and  _519
REMARK  218  A    between atoms: _518  and  _521
REMARK  219  A    between atoms: _521  and  _522
REMARK  220  A    between atoms: _522  and  _523
REMARK  221  A    between atoms: _523  and  _524
REMARK                            x       y       z     vdW  Elec       q    Type
REMARK                         _______ _______ _______ _____ _____    ______ ____
ROOT
ATOM      1  O   HOH     1      48.667  29.448  25.131  0.00  0.00    +0.000 OA
ENDROOT
TORSDOF 0
REMARK  Name = ../refined-set-2016/4bb9/4bb9_pocket.pdb
REMARK  221 active torsions:
REMARK  status: ('A' for Active; 'I' for Inactive)
REMARK    1  A    between atoms: _1  and  _3
REMARK    2  A    between atoms: _3  and  _4
REMARK    3  A    between atoms: _3  and  _6
REMARK    4  A    between atoms: _6  and  _7
REMARK    5  A    between atoms: _10  and  _12
REMARK    6  A    between atoms: _12  and  _13
REMARK    7  A    between atoms: _12  and  _15
REMARK    8  A    between atoms: _15  and  _16
REMARK    9  A    between atoms: _16  and  _17
REMARK   10  A    between atoms: _20  and  _22
REMARK   11  A    between atoms: _22  and  _23
REMARK   12  A    between atoms: _22  and  _25
REMARK   13  A    between atoms: _25  and  _26
REMARK   14  A    between atoms: _28  and  _30
REMARK   15  A    between atoms: _30  and  _31
REMARK   16  A    between atoms: _33  and  _35
REMARK   17  A    between atoms: _35  and  _36
REMARK   18  A    between atoms: _38  and  _40
REMARK   19  A    between atoms: _40  and  _41
REMARK   20  A    between atoms: _43  and  _45
REMARK   21  A    between atoms: _45  and  _46
REMARK   22  A    between atoms: _45  and  _48
REMARK   23  A    between atoms: _48  and  _49
REMARK   24  A    between atoms: _52  and  _54
REMARK   25  A    between atoms: _54  and  _55
REMARK   26  A    between atoms: _54  and  _57
REMARK   27  A    between atoms: _57  and  _58
REMARK   28  A    between atoms: _60  and  _62
REMARK   29  A    between atoms: _62  and  _63
REMARK   30  A    between atoms: _65  and  _67
REMARK   31  A    between atoms: _67  and  _68
REMARK   32  A    between atoms: _67  and  _70
REMARK   33  A    between atoms: _70  and  _71
REMARK   34  A    between atoms: _71  and  _72
REMARK   35  A    between atoms: _72  and  _73
REMARK   36  A    between atoms: _82  and  _84
REMARK   37  A    between atoms: _84  and  _85
REMARK   38  A    between atoms: _84  and  _87
REMARK   39  A    between atoms: _87  and  _88
REMARK   40  A    between atoms: _88  and  _89
REMARK   41  A    between atoms: _91  and  _93
REMARK   42  A    between atoms: _93  and  _94
REMARK   43  A    between atoms: _97  and  _99
REMARK   44  A    between atoms: _99  and  _100
REMARK   45  A    between atoms: _99  and  _102
REMARK   46  A    between atoms: _102  and  _103
REMARK   47  A    between atoms: _105  and  _107
REMARK   48  A    between atoms: _107  and  _108
REMARK   49  A    between atoms: _107  and  _110
REMARK   50  A    between atoms: _110  and  _111
REMARK   51  A    between atoms: _111  and  _112
REMARK   52  A    between atoms: _112  and  _113
REMARK   53  A    between atoms: _122  and  _124
REMARK   54  A    between atoms: _124  and  _125
REMARK   55  A    between atoms: _124  and  _127
REMARK   56  A    between atoms: _127  and  _128
REMARK   57  A    between atoms: _128  and  _129
REMARK   58  A    between atoms: _132  and  _134
REMARK   59  A    between atoms: _134  and  _135
REMARK   60  A    between atoms: _137  and  _139
REMARK   61  A    between atoms: _139  and  _140
REMARK   62  A    between atoms: _139  and  _142
REMARK   63  A    between atoms: _142  and  _143
REMARK   64  A    between atoms: _146  and  _148
REMARK   65  A    between atoms: _148  and  _149
REMARK   66  A    between atoms: _148  and  _151
REMARK   67  A    between atoms: _151  and  _152
REMARK   68  A    between atoms: _152  and  _153
REMARK   69  A    between atoms: _156  and  _158
REMARK   70  A    between atoms: _158  and  _159
REMARK   71  A    between atoms: _158  and  _161
REMARK   72  A    between atoms: _161  and  _162
REMARK   73  A    between atoms: _165  and  _167
REMARK   74  A    between atoms: _167  and  _168
REMARK   75  A    between atoms: _167  and  _170
REMARK   76  A    between atoms: _170  and  _171
REMARK   77  A    between atoms: _174  and  _176
REMARK   78  A    between atoms: _176  and  _177
REMARK   79  A    between atoms: _176  and  _179
REMARK   80  A    between atoms: _179  and  _180
REMARK   81  A    between atoms: _182  and  _184
REMARK   82  A    between atoms: _184  and  _185
REMARK   83  A    between atoms: _184  and  _187
REMARK   84  A    between atoms: _190  and  _192
REMARK   85  A    between atoms: _192  and  _193
REMARK   86  A    between atoms: _195  and  _197
REMARK   87  A    between atoms: _197  and  _198
REMARK   88  A    between atoms: _197  and  _200
REMARK   89  A    between atoms: _200  and  _201
REMARK   90  A    between atoms: _204  and  _206
REMARK   91  A    between atoms: _206  and  _207
REMARK   92  A    between atoms: _206  and  _209
REMARK   93  A    between atoms: _209  and  _210
REMARK   94  A    between atoms: _212  and  _214
REMARK   95  A    between atoms: _214  and  _215
REMARK   96  A    between atoms: _219  and  _220
REMARK   97  A    between atoms: _225  and  _227
REMARK   98  A    between atoms: _227  and  _228
REMARK   99  A    between atoms: _227  and  _230
REMARK  100  A    between atoms: _230  and  _231
REMARK  101  A    between atoms: _237  and  _239
REMARK  102  A    between atoms: _239  and  _240
REMARK  103  A    between atoms: _239  and  _242
REMARK  104  A    between atoms: _245  and  _247
REMARK  105  A    between atoms: _247  and  _248
REMARK  106  A    between atoms: _251  and  _253
REMARK  107  A    between atoms: _253  and  _254
REMARK  108  A    between atoms: _253  and  _256
REMARK  109  A    between atoms: _259  and  _261
REMARK  110  A    between atoms: _261  and  _262
REMARK  111  A    between atoms: _264  and  _266
REMARK  112  A    between atoms: _266  and  _267
REMARK  113  A    between atoms: _266  and  _269
REMARK  114  A    between atoms: _269  and  _270
REMARK  115  A    between atoms: _276  and  _278
REMARK  116  A    between atoms: _278  and  _279
REMARK  117  A    between atoms: _278  and  _281
REMARK  118  A    between atoms: _281  and  _282
REMARK  119  A    between atoms: _287  and  _289
REMARK  120  A    between atoms: _289  and  _290
REMARK  121  A    between atoms: _289  and  _292
REMARK  122  A    between atoms: _292  and  _293
REMARK  123  A    between atoms: _293  and  _294
REMARK  124  A    between atoms: _294  and  _295
REMARK  125  A    between atoms: _304  and  _306
REMARK  126  A    between atoms: _306  and  _307
REMARK  127  A    between atoms: _306  and  _309
REMARK  128  A    between atoms: _309  and  _310
REMARK  129  A    between atoms: _316  and  _318
REMARK  130  A    between atoms: _318  and  _319
REMARK  131  A    between atoms: _321  and  _323
REMARK  132  A    between atoms: _323  and  _324
REMARK  133  A    between atoms: _323  and  _326
REMARK  134  A    between atoms: _326  and  _327
REMARK  135  A    between atoms: _329  and  _331
REMARK  136  A    between atoms: _331  and  _332
REMARK  137  A    between atoms: _331  and  _334
REMARK  138  A    between atoms: _334  and  _335
REMARK  139  A    between atoms: _337  and  _339
REMARK  140  A    between atoms: _339  and  _340
REMARK  141  A    between atoms: _339  and  _342
REMARK  142  A    between atoms: _342  and  _343
REMARK  143  A    between atoms: _343  and  _344
REMARK  144  A    between atoms: _344  and  _345
REMARK  145  A    between atoms: _354  and  _356
REMARK  146  A    between atoms: _356  and  _357
REMARK  147  A    between atoms: _356  and  _359
REMARK  148  A    between atoms: _359  and  _360
REMARK  149  A    between atoms: _360  and  _361
REMARK  150  A    between atoms: _363  and  _365
REMARK  151  A    between atoms: _365  and  _366
REMARK  152  A    between atoms: _368  and  _370
REMARK  153  A    between atoms: _370  and  _371
REMARK  154  A    between atoms: _373  and  _375
REMARK  155  A    between atoms: _375  and  _376
REMARK  156  A    between atoms: _375  and  _378
REMARK  157  A    between atoms: _378  and  _379
REMARK  158  A    between atoms: _382  and  _384
REMARK  159  A    between atoms: _384  and  _385
REMARK  160  A    between atoms: _384  and  _387
REMARK  161  A    between atoms: _390  and  _392
REMARK  162  A    between atoms: _392  and  _393
REMARK  163  A    between atoms: _392  and  _395
REMARK  164  A    between atoms: _395  and  _396
REMARK  165  A    between atoms: _396  and  _397
REMARK  166  A    between atoms: _400  and  _402
REMARK  167  A    between atoms: _402  and  _403
REMARK  168  A    between atoms: _402  and  _405
REMARK  169  A    between atoms: _405  and  _406
REMARK  170  A    between atoms: _411  and  _413
REMARK  171  A    between atoms: _413  and  _414
REMARK  172  A    between atoms: _413  and  _416
REMARK  173  A    between atoms: _416  and  _417
REMARK  174  A    between atoms: _420  and  _422
REMARK  175  A    between atoms: _422  and  _423
REMARK  176  A    between atoms: _422  and  _425
REMARK  177  A    between atoms: _425  and  _426
REMARK  178  A    between atoms: _426  and  _427
REMARK  179  A    between atoms: _429  and  _431
REMARK  180  A    between atoms: _431  and  _432
REMARK  181  A    between atoms: _431  and  _434
REMARK  182  A    between atoms: _434  and  _435
REMARK  183  A    between atoms: _438  and  _440
REMARK  184  A    between atoms: _440  and  _441
REMARK  185  A    between atoms: _440  and  _443
REMARK  186  A    between atoms: _443  and  _444
REMARK  187  A    between atoms: _444  and  _445
REMARK  188  A    between atoms: _445  and  _446
REMARK  189  A    between atoms: _455  and  _457
REMARK  190  A    between atoms: _457  and  _458
REMARK  191  A    between atoms: _457  and  _460
REMARK  192  A    between atoms: _460  and  _461
REMARK  193  A    between atoms: _463  and  _465
REMARK  194  A    between atoms: _465  and  _466
REMARK  195  A    between atoms: _465  and  _468
REMARK  196  A    between atoms: _468  and  _469
REMARK  197  A    between atoms: _474  and  _476
REMARK  198  A    between atoms: _476  and  _477
REMARK  199  A    between atoms: _476  and  _479
REMARK  200  A    between atoms: _479  and  _480
REMARK  201  A    between atoms: _482  and  _484
REMARK  202  A    between atoms: _484  and  _485
REMARK  203  A    between atoms: _484  and  _487
REMARK  204  A    between atoms: _487  and  _488
REMARK  205  A    between atoms: _488  and  _489
REMARK  206  A    between atoms: _489  and  _490
REMARK  207  A    between atoms: _490  and  _491
REMARK  208  A    between atoms: _495  and  _497
REMARK  209  A    between atoms: _497  and  _498
REMARK  210  A    between atoms: _497  and  _500
REMARK  211  A    between atoms: _500  and  _501
REMARK  212  A    between atoms: _504  and  _506
REMARK  213  A    between atoms: _506  and  _507
REMARK  214  A    between atoms: _506  and  _509
REMARK  215  A    between atoms: _509  and  _510
REMARK  216  A    between atoms: _516  and  _518
REMARK  217  A    between atoms: _518  and  _519
REMARK  218  A    between atoms: _518  and  _521
REMARK  219  A    between atoms: _521  and  _522
REMARK  220  A    between atoms: _522  and  _523
REMARK  221  A    between atoms: _523  and  _524
REMARK                            x       y       z     vdW  Elec       q    Type
REMARK                         _______ _______ _______ _____ _____    ______ ____
ROOT
ATOM      1  O   HOH     1      44.251  28.731  17.440  0.00  0.00    +0.000 OA
ENDROOT
TORSDOF 0
REMARK  Name = ../refined-set-2016/4bb9/4bb9_pocket.pdb
REMARK  221 active torsions:
REMARK  status: ('A' for Active; 'I' for Inactive)
REMARK    1  A    between atoms: _1  and  _3
REMARK    2  A    between atoms: _3  and  _4
REMARK    3  A    between atoms: _3  and  _6
REMARK    4  A    between atoms: _6  and  _7
REMARK    5  A    between atoms: _10  and  _12
REMARK    6  A    between atoms: _12  and  _13
REMARK    7  A    between atoms: _12  and  _15
REMARK    8  A    between atoms: _15  and  _16
REMARK    9  A    between atoms: _16  and  _17
REMARK   10  A    between atoms: _20  and  _22
REMARK   11  A    between atoms: _22  and  _23
REMARK   12  A    between atoms: _22  and  _25
REMARK   13  A    between atoms: _25  and  _26
REMARK   14  A    between atoms: _28  and  _30
REMARK   15  A    between atoms: _30  and  _31
REMARK   16  A    between atoms: _33  and  _35
REMARK   17  A    between atoms: _35  and  _36
REMARK   18  A    between atoms: _38  and  _40
REMARK   19  A    between atoms: _40  and  _41
REMARK   20  A    between atoms: _43  and  _45
REMARK   21  A    between atoms: _45  and  _46
REMARK   22  A    between atoms: _45  and  _48
REMARK   23  A    between atoms: _48  and  _49
REMARK   24  A    between atoms: _52  and  _54
REMARK   25  A    between atoms: _54  and  _55
REMARK   26  A    between atoms: _54  and  _57
REMARK   27  A    between atoms: _57  and  _58
REMARK   28  A    between atoms: _60  and  _62
REMARK   29  A    between atoms: _62  and  _63
REMARK   30  A    between atoms: _65  and  _67
REMARK   31  A    between atoms: _67  and  _68
REMARK   32  A    between atoms: _67  and  _70
REMARK   33  A    between atoms: _70  and  _71
REMARK   34  A    between atoms: _71  and  _72
REMARK   35  A    between atoms: _72  and  _73
REMARK   36  A    between atoms: _82  and  _84
REMARK   37  A    between atoms: _84  and  _85
REMARK   38  A    between atoms: _84  and  _87
REMARK   39  A    between atoms: _87  and  _88
REMARK   40  A    between atoms: _88  and  _89
REMARK   41  A    between atoms: _91  and  _93
REMARK   42  A    between atoms: _93  and  _94
REMARK   43  A    between atoms: _97  and  _99
REMARK   44  A    between atoms: _99  and  _100
REMARK   45  A    between atoms: _99  and  _102
REMARK   46  A    between atoms: _102  and  _103
REMARK   47  A    between atoms: _105  and  _107
REMARK   48  A    between atoms: _107  and  _108
REMARK   49  A    between atoms: _107  and  _110
REMARK   50  A    between atoms: _110  and  _111
REMARK   51  A    between atoms: _111  and  _112
REMARK   52  A    between atoms: _112  and  _113
REMARK   53  A    between atoms: _122  and  _124
REMARK   54  A    between atoms: _124  and  _125
REMARK   55  A    between atoms: _124  and  _127
REMARK   56  A    between atoms: _127  and  _128
REMARK   57  A    between atoms: _128  and  _129
REMARK   58  A    between atoms: _132  and  _134
REMARK   59  A    between atoms: _134  and  _135
REMARK   60  A    between atoms: _137  and  _139
REMARK   61  A    between atoms: _139  and  _140
REMARK   62  A    between atoms: _139  and  _142
REMARK   63  A    between atoms: _142  and  _143
REMARK   64  A    between atoms: _146  and  _148
REMARK   65  A    between atoms: _148  and  _149
REMARK   66  A    between atoms: _148  and  _151
REMARK   67  A    between atoms: _151  and  _152
REMARK   68  A    between atoms: _152  and  _153
REMARK   69  A    between atoms: _156  and  _158
REMARK   70  A    between atoms: _158  and  _159
REMARK   71  A    between atoms: _158  and  _161
REMARK   72  A    between atoms: _161  and  _162
REMARK   73  A    between atoms: _165  and  _167
REMARK   74  A    between atoms: _167  and  _168
REMARK   75  A    between atoms: _167  and  _170
REMARK   76  A    between atoms: _170  and  _171
REMARK   77  A    between atoms: _174  and  _176
REMARK   78  A    between atoms: _176  and  _177
REMARK   79  A    between atoms: _176  and  _179
REMARK   80  A    between atoms: _179  and  _180
REMARK   81  A    between atoms: _182  and  _184
REMARK   82  A    between atoms: _184  and  _185
REMARK   83  A    between atoms: _184  and  _187
REMARK   84  A    between atoms: _190  and  _192
REMARK   85  A    between atoms: _192  and  _193
REMARK   86  A    between atoms: _195  and  _197
REMARK   87  A    between atoms: _197  and  _198
REMARK   88  A    between atoms: _197  and  _200
REMARK   89  A    between atoms: _200  and  _201
REMARK   90  A    between atoms: _204  and  _206
REMARK   91  A    between atoms: _206  and  _207
REMARK   92  A    between atoms: _206  and  _209
REMARK   93  A    between atoms: _209  and  _210
REMARK   94  A    between atoms: _212  and  _214
REMARK   95  A    between atoms: _214  and  _215
REMARK   96  A    between atoms: _219  and  _220
REMARK   97  A    between atoms: _225  and  _227
REMARK   98  A    between atoms: _227  and  _228
REMARK   99  A    between atoms: _227  and  _230
REMARK  100  A    between atoms: _230  and  _231
REMARK  101  A    between atoms: _237  and  _239
REMARK  102  A    between atoms: _239  and  _240
REMARK  103  A    between atoms: _239  and  _242
REMARK  104  A    between atoms: _245  and  _247
REMARK  105  A    between atoms: _247  and  _248
REMARK  106  A    between atoms: _251  and  _253
REMARK  107  A    between atoms: _253  and  _254
REMARK  108  A    between atoms: _253  and  _256
REMARK  109  A    between atoms: _259  and  _261
REMARK  110  A    between atoms: _261  and  _262
REMARK  111  A    between atoms: _264  and  _266
REMARK  112  A    between atoms: _266  and  _267
REMARK  113  A    between atoms: _266  and  _269
REMARK  114  A    between atoms: _269  and  _270
REMARK  115  A    between atoms: _276  and  _278
REMARK  116  A    between atoms: _278  and  _279
REMARK  117  A    between atoms: _278  and  _281
REMARK  118  A    between atoms: _281  and  _282
REMARK  119  A    between atoms: _287  and  _289
REMARK  120  A    between atoms: _289  and  _290
REMARK  121  A    between atoms: _289  and  _292
REMARK  122  A    between atoms: _292  and  _293
REMARK  123  A    between atoms: _293  and  _294
REMARK  124  A    between atoms: _294  and  _295
REMARK  125  A    between atoms: _304  and  _306
REMARK  126  A    between atoms: _306  and  _307
REMARK  127  A    between atoms: _306  and  _309
REMARK  128  A    between atoms: _309  and  _310
REMARK  129  A    between atoms: _316  and  _318
REMARK  130  A    between atoms: _318  and  _319
REMARK  131  A    between atoms: _321  and  _323
REMARK  132  A    between atoms: _323  and  _324
REMARK  133  A    between atoms: _323  and  _326
REMARK  134  A    between atoms: _326  and  _327
REMARK  135  A    between atoms: _329  and  _331
REMARK  136  A    between atoms: _331  and  _332
REMARK  137  A    between atoms: _331  and  _334
REMARK  138  A    between atoms: _334  and  _335
REMARK  139  A    between atoms: _337  and  _339
REMARK  140  A    between atoms: _339  and  _340
REMARK  141  A    between atoms: _339  and  _342
REMARK  142  A    between atoms: _342  and  _343
REMARK  143  A    between atoms: _343  and  _344
REMARK  144  A    between atoms: _344  and  _345
REMARK  145  A    between atoms: _354  and  _356
REMARK  146  A    between atoms: _356  and  _357
REMARK  147  A    between atoms: _356  and  _359
REMARK  148  A    between atoms: _359  and  _360
REMARK  149  A    between atoms: _360  and  _361
REMARK  150  A    between atoms: _363  and  _365
REMARK  151  A    between atoms: _365  and  _366
REMARK  152  A    between atoms: _368  and  _370
REMARK  153  A    between atoms: _370  and  _371
REMARK  154  A    between atoms: _373  and  _375
REMARK  155  A    between atoms: _375  and  _376
REMARK  156  A    between atoms: _375  and  _378
REMARK  157  A    between atoms: _378  and  _379
REMARK  158  A    between atoms: _382  and  _384
REMARK  159  A    between atoms: _384  and  _385
REMARK  160  A    between atoms: _384  and  _387
REMARK  161  A    between atoms: _390  and  _392
REMARK  162  A    between atoms: _392  and  _393
REMARK  163  A    between atoms: _392  and  _395
REMARK  164  A    between atoms: _395  and  _396
REMARK  165  A    between atoms: _396  and  _397
REMARK  166  A    between atoms: _400  and  _402
REMARK  167  A    between atoms: _402  and  _403
REMARK  168  A    between atoms: _402  and  _405
REMARK  169  A    between atoms: _405  and  _406
REMARK  170  A    between atoms: _411  and  _413
REMARK  171  A    between atoms: _413  and  _414
REMARK  172  A    between atoms: _413  and  _416
REMARK  173  A    between atoms: _416  and  _417
REMARK  174  A    between atoms: _420  and  _422
REMARK  175  A    between atoms: _422  and  _423
REMARK  176  A    between atoms: _422  and  _425
REMARK  177  A    between atoms: _425  and  _426
REMARK  178  A    between atoms: _426  and  _427
REMARK  179  A    between atoms: _429  and  _431
REMARK  180  A    between atoms: _431  and  _432
REMARK  181  A    between atoms: _431  and  _434
REMARK  182  A    between atoms: _434  and  _435
REMARK  183  A    between atoms: _438  and  _440
REMARK  184  A    between atoms: _440  and  _441
REMARK  185  A    between atoms: _440  and  _443
REMARK  186  A    between atoms: _443  and  _444
REMARK  187  A    between atoms: _444  and  _445
REMARK  188  A    between atoms: _445  and  _446
REMARK  189  A    between atoms: _455  and  _457
REMARK  190  A    between atoms: _457  and  _458
REMARK  191  A    between atoms: _457  and  _460
REMARK  192  A    between atoms: _460  and  _461
REMARK  193  A    between atoms: _463  and  _465
REMARK  194  A    between atoms: _465  and  _466
REMARK  195  A    between atoms: _465  and  _468
REMARK  196  A    between atoms: _468  and  _469
REMARK  197  A    between atoms: _474  and  _476
REMARK  198  A    between atoms: _476  and  _477
REMARK  199  A    between atoms: _476  and  _479
REMARK  200  A    between atoms: _479  and  _480
REMARK  201  A    between atoms: _482  and  _484
REMARK  202  A    between atoms: _484  and  _485
REMARK  203  A    between atoms: _484  and  _487
REMARK  204  A    between atoms: _487  and  _488
REMARK  205  A    between atoms: _488  and  _489
REMARK  206  A    between atoms: _489  and  _490
REMARK  207  A    between atoms: _490  and  _491
REMARK  208  A    between atoms: _495  and  _497
REMARK  209  A    between atoms: _497  and  _498
REMARK  210  A    between atoms: _497  and  _500
REMARK  211  A    between atoms: _500  and  _501
REMARK  212  A    between atoms: _504  and  _506
REMARK  213  A    between atoms: _506  and  _507
REMARK  214  A    between atoms: _506  and  _509
REMARK  215  A    between atoms: _509  and  _510
REMARK  216  A    between atoms: _516  and  _518
REMARK  217  A    between atoms: _518  and  _519
REMARK  218  A    between atoms: _518  and  _521
REMARK  219  A    between atoms: _521  and  _522
REMARK  220  A    between atoms: _522  and  _523
REMARK  221  A    between atoms: _523  and  _524
REMARK                            x       y       z     vdW  Elec       q    Type
REMARK                         _______ _______ _______ _____ _____    ______ ____
ROOT
ATOM      1  O   HOH     1      42.026  30.914  18.756  0.00  0.00    +0.000 OA
ENDROOT
TORSDOF 0
REMARK  Name = ../refined-set-2016/4bb9/4bb9_pocket.pdb
REMARK  221 active torsions:
REMARK  status: ('A' for Active; 'I' for Inactive)
REMARK    1  A    between atoms: _1  and  _3
REMARK    2  A    between atoms: _3  and  _4
REMARK    3  A    between atoms: _3  and  _6
REMARK    4  A    between atoms: _6  and  _7
REMARK    5  A    between atoms: _10  and  _12
REMARK    6  A    between atoms: _12  and  _13
REMARK    7  A    between atoms: _12  and  _15
REMARK    8  A    between atoms: _15  and  _16
REMARK    9  A    between atoms: _16  and  _17
REMARK   10  A    between atoms: _20  and  _22
REMARK   11  A    between atoms: _22  and  _23
REMARK   12  A    between atoms: _22  and  _25
REMARK   13  A    between atoms: _25  and  _26
REMARK   14  A    between atoms: _28  and  _30
REMARK   15  A    between atoms: _30  and  _31
REMARK   16  A    between atoms: _33  and  _35
REMARK   17  A    between atoms: _35  and  _36
REMARK   18  A    between atoms: _38  and  _40
REMARK   19  A    between atoms: _40  and  _41
REMARK   20  A    between atoms: _43  and  _45
REMARK   21  A    between atoms: _45  and  _46
REMARK   22  A    between atoms: _45  and  _48
REMARK   23  A    between atoms: _48  and  _49
REMARK   24  A    between atoms: _52  and  _54
REMARK   25  A    between atoms: _54  and  _55
REMARK   26  A    between atoms: _54  and  _57
REMARK   27  A    between atoms: _57  and  _58
REMARK   28  A    between atoms: _60  and  _62
REMARK   29  A    between atoms: _62  and  _63
REMARK   30  A    between atoms: _65  and  _67
REMARK   31  A    between atoms: _67  and  _68
REMARK   32  A    between atoms: _67  and  _70
REMARK   33  A    between atoms: _70  and  _71
REMARK   34  A    between atoms: _71  and  _72
REMARK   35  A    between atoms: _72  and  _73
REMARK   36  A    between atoms: _82  and  _84
REMARK   37  A    between atoms: _84  and  _85
REMARK   38  A    between atoms: _84  and  _87
REMARK   39  A    between atoms: _87  and  _88
REMARK   40  A    between atoms: _88  and  _89
REMARK   41  A    between atoms: _91  and  _93
REMARK   42  A    between atoms: _93  and  _94
REMARK   43  A    between atoms: _97  and  _99
REMARK   44  A    between atoms: _99  and  _100
REMARK   45  A    between atoms: _99  and  _102
REMARK   46  A    between atoms: _102  and  _103
REMARK   47  A    between atoms: _105  and  _107
REMARK   48  A    between atoms: _107  and  _108
REMARK   49  A    between atoms: _107  and  _110
REMARK   50  A    between atoms: _110  and  _111
REMARK   51  A    between atoms: _111  and  _112
REMARK   52  A    between atoms: _112  and  _113
REMARK   53  A    between atoms: _122  and  _124
REMARK   54  A    between atoms: _124  and  _125
REMARK   55  A    between atoms: _124  and  _127
REMARK   56  A    between atoms: _127  and  _128
REMARK   57  A    between atoms: _128  and  _129
REMARK   58  A    between atoms: _132  and  _134
REMARK   59  A    between atoms: _134  and  _135
REMARK   60  A    between atoms: _137  and  _139
REMARK   61  A    between atoms: _139  and  _140
REMARK   62  A    between atoms: _139  and  _142
REMARK   63  A    between atoms: _142  and  _143
REMARK   64  A    between atoms: _146  and  _148
REMARK   65  A    between atoms: _148  and  _149
REMARK   66  A    between atoms: _148  and  _151
REMARK   67  A    between atoms: _151  and  _152
REMARK   68  A    between atoms: _152  and  _153
REMARK   69  A    between atoms: _156  and  _158
REMARK   70  A    between atoms: _158  and  _159
REMARK   71  A    between atoms: _158  and  _161
REMARK   72  A    between atoms: _161  and  _162
REMARK   73  A    between atoms: _165  and  _167
REMARK   74  A    between atoms: _167  and  _168
REMARK   75  A    between atoms: _167  and  _170
REMARK   76  A    between atoms: _170  and  _171
REMARK   77  A    between atoms: _174  and  _176
REMARK   78  A    between atoms: _176  and  _177
REMARK   79  A    between atoms: _176  and  _179
REMARK   80  A    between atoms: _179  and  _180
REMARK   81  A    between atoms: _182  and  _184
REMARK   82  A    between atoms: _184  and  _185
REMARK   83  A    between atoms: _184  and  _187
REMARK   84  A    between atoms: _190  and  _192
REMARK   85  A    between atoms: _192  and  _193
REMARK   86  A    between atoms: _195  and  _197
REMARK   87  A    between atoms: _197  and  _198
REMARK   88  A    between atoms: _197  and  _200
REMARK   89  A    between atoms: _200  and  _201
REMARK   90  A    between atoms: _204  and  _206
REMARK   91  A    between atoms: _206  and  _207
REMARK   92  A    between atoms: _206  and  _209
REMARK   93  A    between atoms: _209  and  _210
REMARK   94  A    between atoms: _212  and  _214
REMARK   95  A    between atoms: _214  and  _215
REMARK   96  A    between atoms: _219  and  _220
REMARK   97  A    between atoms: _225  and  _227
REMARK   98  A    between atoms: _227  and  _228
REMARK   99  A    between atoms: _227  and  _230
REMARK  100  A    between atoms: _230  and  _231
REMARK  101  A    between atoms: _237  and  _239
REMARK  102  A    between atoms: _239  and  _240
REMARK  103  A    between atoms: _239  and  _242
REMARK  104  A    between atoms: _245  and  _247
REMARK  105  A    between atoms: _247  and  _248
REMARK  106  A    between atoms: _251  and  _253
REMARK  107  A    between atoms: _253  and  _254
REMARK  108  A    between atoms: _253  and  _256
REMARK  109  A    between atoms: _259  and  _261
REMARK  110  A    between atoms: _261  and  _262
REMARK  111  A    between atoms: _264  and  _266
REMARK  112  A    between atoms: _266  and  _267
REMARK  113  A    between atoms: _266  and  _269
REMARK  114  A    between atoms: _269  and  _270
REMARK  115  A    between atoms: _276  and  _278
REMARK  116  A    between atoms: _278  and  _279
REMARK  117  A    between atoms: _278  and  _281
REMARK  118  A    between atoms: _281  and  _282
REMARK  119  A    between atoms: _287  and  _289
REMARK  120  A    between atoms: _289  and  _290
REMARK  121  A    between atoms: _289  and  _292
REMARK  122  A    between atoms: _292  and  _293
REMARK  123  A    between atoms: _293  and  _294
REMARK  124  A    between atoms: _294  and  _295
REMARK  125  A    between atoms: _304  and  _306
REMARK  126  A    between atoms: _306  and  _307
REMARK  127  A    between atoms: _306  and  _309
REMARK  128  A    between atoms: _309  and  _310
REMARK  129  A    between atoms: _316  and  _318
REMARK  130  A    between atoms: _318  and  _319
REMARK  131  A    between atoms: _321  and  _323
REMARK  132  A    between atoms: _323  and  _324
REMARK  133  A    between atoms: _323  and  _326
REMARK  134  A    between atoms: _326  and  _327
REMARK  135  A    between atoms: _329  and  _331
REMARK  136  A    between atoms: _331  and  _332
REMARK  137  A    between atoms: _331  and  _334
REMARK  138  A    between atoms: _334  and  _335
REMARK  139  A    between atoms: _337  and  _339
REMARK  140  A    between atoms: _339  and  _340
REMARK  141  A    between atoms: _339  and  _342
REMARK  142  A    between atoms: _342  and  _343
REMARK  143  A    between atoms: _343  and  _344
REMARK  144  A    between atoms: _344  and  _345
REMARK  145  A    between atoms: _354  and  _356
REMARK  146  A    between atoms: _356  and  _357
REMARK  147  A    between atoms: _356  and  _359
REMARK  148  A    between atoms: _359  and  _360
REMARK  149  A    between atoms: _360  and  _361
REMARK  150  A    between atoms: _363  and  _365
REMARK  151  A    between atoms: _365  and  _366
REMARK  152  A    between atoms: _368  and  _370
REMARK  153  A    between atoms: _370  and  _371
REMARK  154  A    between atoms: _373  and  _375
REMARK  155  A    between atoms: _375  and  _376
REMARK  156  A    between atoms: _375  and  _378
REMARK  157  A    between atoms: _378  and  _379
REMARK  158  A    between atoms: _382  and  _384
REMARK  159  A    between atoms: _384  and  _385
REMARK  160  A    between atoms: _384  and  _387
REMARK  161  A    between atoms: _390  and  _392
REMARK  162  A    between atoms: _392  and  _393
REMARK  163  A    between atoms: _392  and  _395
REMARK  164  A    between atoms: _395  and  _396
REMARK  165  A    between atoms: _396  and  _397
REMARK  166  A    between atoms: _400  and  _402
REMARK  167  A    between atoms: _402  and  _403
REMARK  168  A    between atoms: _402  and  _405
REMARK  169  A    between atoms: _405  and  _406
REMARK  170  A    between atoms: _411  and  _413
REMARK  171  A    between atoms: _413  and  _414
REMARK  172  A    between atoms: _413  and  _416
REMARK  173  A    between atoms: _416  and  _417
REMARK  174  A    between atoms: _420  and  _422
REMARK  175  A    between atoms: _422  and  _423
REMARK  176  A    between atoms: _422  and  _425
REMARK  177  A    between atoms: _425  and  _426
REMARK  178  A    between atoms: _426  and  _427
REMARK  179  A    between atoms: _429  and  _431
REMARK  180  A    between atoms: _431  and  _432
REMARK  181  A    between atoms: _431  and  _434
REMARK  182  A    between atoms: _434  and  _435
REMARK  183  A    between atoms: _438  and  _440
REMARK  184  A    between atoms: _440  and  _441
REMARK  185  A    between atoms: _440  and  _443
REMARK  186  A    between atoms: _443  and  _444
REMARK  187  A    between atoms: _444  and  _445
REMARK  188  A    between atoms: _445  and  _446
REMARK  189  A    between atoms: _455  and  _457
REMARK  190  A    between atoms: _457  and  _458
REMARK  191  A    between atoms: _457  and  _460
REMARK  192  A    between atoms: _460  and  _461
REMARK  193  A    between atoms: _463  and  _465
REMARK  194  A    between atoms: _465  and  _466
REMARK  195  A    between atoms: _465  and  _468
REMARK  196  A    between atoms: _468  and  _469
REMARK  197  A    between atoms: _474  and  _476
REMARK  198  A    between atoms: _476  and  _477
REMARK  199  A    between atoms: _476  and  _479
REMARK  200  A    between atoms: _479  and  _480
REMARK  201  A    between atoms: _482  and  _484
REMARK  202  A    between atoms: _484  and  _485
REMARK  203  A    between atoms: _484  and  _487
REMARK  204  A    between atoms: _487  and  _488
REMARK  205  A    between atoms: _488  and  _489
REMARK  206  A    between atoms: _489  and  _490
REMARK  207  A    between atoms: _490  and  _491
REMARK  208  A    between atoms: _495  and  _497
REMARK  209  A    between atoms: _497  and  _498
REMARK  210  A    between atoms: _497  and  _500
REMARK  211  A    between atoms: _500  and  _501
REMARK  212  A    between atoms: _504  and  _506
REMARK  213  A    between atoms: _506  and  _507
REMARK  214  A    between atoms: _506  and  _509
REMARK  215  A    between atoms: _509  and  _510
REMARK  216  A    between atoms: _516  and  _518
REMARK  217  A    between atoms: _518  and  _519
REMARK  218  A    between atoms: _518  and  _521
REMARK  219  A    between atoms: _521  and  _522
REMARK  220  A    between atoms: _522  and  _523
REMARK  221  A    between atoms: _523  and  _524
REMARK                            x       y       z     vdW  Elec       q    Type
REMARK                         _______ _______ _______ _____ _____    ______ ____
ROOT
ATOM      1  O   HOH     1      44.829  31.400  18.671  0.00  0.00    +0.000 OA
ENDROOT
TORSDOF 0
REMARK  Name = ../refined-set-2016/4bb9/4bb9_pocket.pdb
REMARK  221 active torsions:
REMARK  status: ('A' for Active; 'I' for Inactive)
REMARK    1  A    between atoms: _1  and  _3
REMARK    2  A    between atoms: _3  and  _4
REMARK    3  A    between atoms: _3  and  _6
REMARK    4  A    between atoms: _6  and  _7
REMARK    5  A    between atoms: _10  and  _12
REMARK    6  A    between atoms: _12  and  _13
REMARK    7  A    between atoms: _12  and  _15
REMARK    8  A    between atoms: _15  and  _16
REMARK    9  A    between atoms: _16  and  _17
REMARK   10  A    between atoms: _20  and  _22
REMARK   11  A    between atoms: _22  and  _23
REMARK   12  A    between atoms: _22  and  _25
REMARK   13  A    between atoms: _25  and  _26
REMARK   14  A    between atoms: _28  and  _30
REMARK   15  A    between atoms: _30  and  _31
REMARK   16  A    between atoms: _33  and  _35
REMARK   17  A    between atoms: _35  and  _36
REMARK   18  A    between atoms: _38  and  _40
REMARK   19  A    between atoms: _40  and  _41
REMARK   20  A    between atoms: _43  and  _45
REMARK   21  A    between atoms: _45  and  _46
REMARK   22  A    between atoms: _45  and  _48
REMARK   23  A    between atoms: _48  and  _49
REMARK   24  A    between atoms: _52  and  _54
REMARK   25  A    between atoms: _54  and  _55
REMARK   26  A    between atoms: _54  and  _57
REMARK   27  A    between atoms: _57  and  _58
REMARK   28  A    between atoms: _60  and  _62
REMARK   29  A    between atoms: _62  and  _63
REMARK   30  A    between atoms: _65  and  _67
REMARK   31  A    between atoms: _67  and  _68
REMARK   32  A    between atoms: _67  and  _70
REMARK   33  A    between atoms: _70  and  _71
REMARK   34  A    between atoms: _71  and  _72
REMARK   35  A    between atoms: _72  and  _73
REMARK   36  A    between atoms: _82  and  _84
REMARK   37  A    between atoms: _84  and  _85
REMARK   38  A    between atoms: _84  and  _87
REMARK   39  A    between atoms: _87  and  _88
REMARK   40  A    between atoms: _88  and  _89
REMARK   41  A    between atoms: _91  and  _93
REMARK   42  A    between atoms: _93  and  _94
REMARK   43  A    between atoms: _97  and  _99
REMARK   44  A    between atoms: _99  and  _100
REMARK   45  A    between atoms: _99  and  _102
REMARK   46  A    between atoms: _102  and  _103
REMARK   47  A    between atoms: _105  and  _107
REMARK   48  A    between atoms: _107  and  _108
REMARK   49  A    between atoms: _107  and  _110
REMARK   50  A    between atoms: _110  and  _111
REMARK   51  A    between atoms: _111  and  _112
REMARK   52  A    between atoms: _112  and  _113
REMARK   53  A    between atoms: _122  and  _124
REMARK   54  A    between atoms: _124  and  _125
REMARK   55  A    between atoms: _124  and  _127
REMARK   56  A    between atoms: _127  and  _128
REMARK   57  A    between atoms: _128  and  _129
REMARK   58  A    between atoms: _132  and  _134
REMARK   59  A    between atoms: _134  and  _135
REMARK   60  A    between atoms: _137  and  _139
REMARK   61  A    between atoms: _139  and  _140
REMARK   62  A    between atoms: _139  and  _142
REMARK   63  A    between atoms: _142  and  _143
REMARK   64  A    between atoms: _146  and  _148
REMARK   65  A    between atoms: _148  and  _149
REMARK   66  A    between atoms: _148  and  _151
REMARK   67  A    between atoms: _151  and  _152
REMARK   68  A    between atoms: _152  and  _153
REMARK   69  A    between atoms: _156  and  _158
REMARK   70  A    between atoms: _158  and  _159
REMARK   71  A    between atoms: _158  and  _161
REMARK   72  A    between atoms: _161  and  _162
REMARK   73  A    between atoms: _165  and  _167
REMARK   74  A    between atoms: _167  and  _168
REMARK   75  A    between atoms: _167  and  _170
REMARK   76  A    between atoms: _170  and  _171
REMARK   77  A    between atoms: _174  and  _176
REMARK   78  A    between atoms: _176  and  _177
REMARK   79  A    between atoms: _176  and  _179
REMARK   80  A    between atoms: _179  and  _180
REMARK   81  A    between atoms: _182  and  _184
REMARK   82  A    between atoms: _184  and  _185
REMARK   83  A    between atoms: _184  and  _187
REMARK   84  A    between atoms: _190  and  _192
REMARK   85  A    between atoms: _192  and  _193
REMARK   86  A    between atoms: _195  and  _197
REMARK   87  A    between atoms: _197  and  _198
REMARK   88  A    between atoms: _197  and  _200
REMARK   89  A    between atoms: _200  and  _201
REMARK   90  A    between atoms: _204  and  _206
REMARK   91  A    between atoms: _206  and  _207
REMARK   92  A    between atoms: _206  and  _209
REMARK   93  A    between atoms: _209  and  _210
REMARK   94  A    between atoms: _212  and  _214
REMARK   95  A    between atoms: _214  and  _215
REMARK   96  A    between atoms: _219  and  _220
REMARK   97  A    between atoms: _225  and  _227
REMARK   98  A    between atoms: _227  and  _228
REMARK   99  A    between atoms: _227  and  _230
REMARK  100  A    between atoms: _230  and  _231
REMARK  101  A    between atoms: _237  and  _239
REMARK  102  A    between atoms: _239  and  _240
REMARK  103  A    between atoms: _239  and  _242
REMARK  104  A    between atoms: _245  and  _247
REMARK  105  A    between atoms: _247  and  _248
REMARK  106  A    between atoms: _251  and  _253
REMARK  107  A    between atoms: _253  and  _254
REMARK  108  A    between atoms: _253  and  _256
REMARK  109  A    between atoms: _259  and  _261
REMARK  110  A    between atoms: _261  and  _262
REMARK  111  A    between atoms: _264  and  _266
REMARK  112  A    between atoms: _266  and  _267
REMARK  113  A    between atoms: _266  and  _269
REMARK  114  A    between atoms: _269  and  _270
REMARK  115  A    between atoms: _276  and  _278
REMARK  116  A    between atoms: _278  and  _279
REMARK  117  A    between atoms: _278  and  _281
REMARK  118  A    between atoms: _281  and  _282
REMARK  119  A    between atoms: _287  and  _289
REMARK  120  A    between atoms: _289  and  _290
REMARK  121  A    between atoms: _289  and  _292
REMARK  122  A    between atoms: _292  and  _293
REMARK  123  A    between atoms: _293  and  _294
REMARK  124  A    between atoms: _294  and  _295
REMARK  125  A    between atoms: _304  and  _306
REMARK  126  A    between atoms: _306  and  _307
REMARK  127  A    between atoms: _306  and  _309
REMARK  128  A    between atoms: _309  and  _310
REMARK  129  A    between atoms: _316  and  _318
REMARK  130  A    between atoms: _318  and  _319
REMARK  131  A    between atoms: _321  and  _323
REMARK  132  A    between atoms: _323  and  _324
REMARK  133  A    between atoms: _323  and  _326
REMARK  134  A    between atoms: _326  and  _327
REMARK  135  A    between atoms: _329  and  _331
REMARK  136  A    between atoms: _331  and  _332
REMARK  137  A    between atoms: _331  and  _334
REMARK  138  A    between atoms: _334  and  _335
REMARK  139  A    between atoms: _337  and  _339
REMARK  140  A    between atoms: _339  and  _340
REMARK  141  A    between atoms: _339  and  _342
REMARK  142  A    between atoms: _342  and  _343
REMARK  143  A    between atoms: _343  and  _344
REMARK  144  A    between atoms: _344  and  _345
REMARK  145  A    between atoms: _354  and  _356
REMARK  146  A    between atoms: _356  and  _357
REMARK  147  A    between atoms: _356  and  _359
REMARK  148  A    between atoms: _359  and  _360
REMARK  149  A    between atoms: _360  and  _361
REMARK  150  A    between atoms: _363  and  _365
REMARK  151  A    between atoms: _365  and  _366
REMARK  152  A    between atoms: _368  and  _370
REMARK  153  A    between atoms: _370  and  _371
REMARK  154  A    between atoms: _373  and  _375
REMARK  155  A    between atoms: _375  and  _376
REMARK  156  A    between atoms: _375  and  _378
REMARK  157  A    between atoms: _378  and  _379
REMARK  158  A    between atoms: _382  and  _384
REMARK  159  A    between atoms: _384  and  _385
REMARK  160  A    between atoms: _384  and  _387
REMARK  161  A    between atoms: _390  and  _392
REMARK  162  A    between atoms: _392  and  _393
REMARK  163  A    between atoms: _392  and  _395
REMARK  164  A    between atoms: _395  and  _396
REMARK  165  A    between atoms: _396  and  _397
REMARK  166  A    between atoms: _400  and  _402
REMARK  167  A    between atoms: _402  and  _403
REMARK  168  A    between atoms: _402  and  _405
REMARK  169  A    between atoms: _405  and  _406
REMARK  170  A    between atoms: _411  and  _413
REMARK  171  A    between atoms: _413  and  _414
REMARK  172  A    between atoms: _413  and  _416
REMARK  173  A    between atoms: _416  and  _417
REMARK  174  A    between atoms: _420  and  _422
REMARK  175  A    between atoms: _422  and  _423
REMARK  176  A    between atoms: _422  and  _425
REMARK  177  A    between atoms: _425  and  _426
REMARK  178  A    between atoms: _426  and  _427
REMARK  179  A    between atoms: _429  and  _431
REMARK  180  A    between atoms: _431  and  _432
REMARK  181  A    between atoms: _431  and  _434
REMARK  182  A    between atoms: _434  and  _435
REMARK  183  A    between atoms: _438  and  _440
REMARK  184  A    between atoms: _440  and  _441
REMARK  185  A    between atoms: _440  and  _443
REMARK  186  A    between atoms: _443  and  _444
REMARK  187  A    between atoms: _444  and  _445
REMARK  188  A    between atoms: _445  and  _446
REMARK  189  A    between atoms: _455  and  _457
REMARK  190  A    between atoms: _457  and  _458
REMARK  191  A    between atoms: _457  and  _460
REMARK  192  A    between atoms: _460  and  _461
REMARK  193  A    between atoms: _463  and  _465
REMARK  194  A    between atoms: _465  and  _466
REMARK  195  A    between atoms: _465  and  _468
REMARK  196  A    between atoms: _468  and  _469
REMARK  197  A    between atoms: _474  and  _476
REMARK  198  A    between atoms: _476  and  _477
REMARK  199  A    between atoms: _476  and  _479
REMARK  200  A    between atoms: _479  and  _480
REMARK  201  A    between atoms: _482  and  _484
REMARK  202  A    between atoms: _484  and  _485
REMARK  203  A    between atoms: _484  and  _487
REMARK  204  A    between atoms: _487  and  _488
REMARK  205  A    between atoms: _488  and  _489
REMARK  206  A    between atoms: _489  and  _490
REMARK  207  A    between atoms: _490  and  _491
REMARK  208  A    between atoms: _495  and  _497
REMARK  209  A    between atoms: _497  and  _498
REMARK  210  A    between atoms: _497  and  _500
REMARK  211  A    between atoms: _500  and  _501
REMARK  212  A    between atoms: _504  and  _506
REMARK  213  A    between atoms: _506  and  _507
REMARK  214  A    between atoms: _506  and  _509
REMARK  215  A    between atoms: _509  and  _510
REMARK  216  A    between atoms: _516  and  _518
REMARK  217  A    between atoms: _518  and  _519
REMARK  218  A    between atoms: _518  and  _521
REMARK  219  A    between atoms: _521  and  _522
REMARK  220  A    between atoms: _522  and  _523
REMARK  221  A    between atoms: _523  and  _524
REMARK                            x       y       z     vdW  Elec       q    Type
REMARK                         _______ _______ _______ _____ _____    ______ ____
ROOT
ATOM      1  O   HOH     1      48.845  34.960  20.658  0.00  0.00    +0.000 OA
ENDROOT
TORSDOF 0
REMARK  Name = ../refined-set-2016/4bb9/4bb9_pocket.pdb
REMARK  221 active torsions:
REMARK  status: ('A' for Active; 'I' for Inactive)
REMARK    1  A    between atoms: _1  and  _3
REMARK    2  A    between atoms: _3  and  _4
REMARK    3  A    between atoms: _3  and  _6
REMARK    4  A    between atoms: _6  and  _7
REMARK    5  A    between atoms: _10  and  _12
REMARK    6  A    between atoms: _12  and  _13
REMARK    7  A    between atoms: _12  and  _15
REMARK    8  A    between atoms: _15  and  _16
REMARK    9  A    between atoms: _16  and  _17
REMARK   10  A    between atoms: _20  and  _22
REMARK   11  A    between atoms: _22  and  _23
REMARK   12  A    between atoms: _22  and  _25
REMARK   13  A    between atoms: _25  and  _26
REMARK   14  A    between atoms: _28  and  _30
REMARK   15  A    between atoms: _30  and  _31
REMARK   16  A    between atoms: _33  and  _35
REMARK   17  A    between atoms: _35  and  _36
REMARK   18  A    between atoms: _38  and  _40
REMARK   19  A    between atoms: _40  and  _41
REMARK   20  A    between atoms: _43  and  _45
REMARK   21  A    between atoms: _45  and  _46
REMARK   22  A    between atoms: _45  and  _48
REMARK   23  A    between atoms: _48  and  _49
REMARK   24  A    between atoms: _52  and  _54
REMARK   25  A    between atoms: _54  and  _55
REMARK   26  A    between atoms: _54  and  _57
REMARK   27  A    between atoms: _57  and  _58
REMARK   28  A    between atoms: _60  and  _62
REMARK   29  A    between atoms: _62  and  _63
REMARK   30  A    between atoms: _65  and  _67
REMARK   31  A    between atoms: _67  and  _68
REMARK   32  A    between atoms: _67  and  _70
REMARK   33  A    between atoms: _70  and  _71
REMARK   34  A    between atoms: _71  and  _72
REMARK   35  A    between atoms: _72  and  _73
REMARK   36  A    between atoms: _82  and  _84
REMARK   37  A    between atoms: _84  and  _85
REMARK   38  A    between atoms: _84  and  _87
REMARK   39  A    between atoms: _87  and  _88
REMARK   40  A    between atoms: _88  and  _89
REMARK   41  A    between atoms: _91  and  _93
REMARK   42  A    between atoms: _93  and  _94
REMARK   43  A    between atoms: _97  and  _99
REMARK   44  A    between atoms: _99  and  _100
REMARK   45  A    between atoms: _99  and  _102
REMARK   46  A    between atoms: _102  and  _103
REMARK   47  A    between atoms: _105  and  _107
REMARK   48  A    between atoms: _107  and  _108
REMARK   49  A    between atoms: _107  and  _110
REMARK   50  A    between atoms: _110  and  _111
REMARK   51  A    between atoms: _111  and  _112
REMARK   52  A    between atoms: _112  and  _113
REMARK   53  A    between atoms: _122  and  _124
REMARK   54  A    between atoms: _124  and  _125
REMARK   55  A    between atoms: _124  and  _127
REMARK   56  A    between atoms: _127  and  _128
REMARK   57  A    between atoms: _128  and  _129
REMARK   58  A    between atoms: _132  and  _134
REMARK   59  A    between atoms: _134  and  _135
REMARK   60  A    between atoms: _137  and  _139
REMARK   61  A    between atoms: _139  and  _140
REMARK   62  A    between atoms: _139  and  _142
REMARK   63  A    between atoms: _142  and  _143
REMARK   64  A    between atoms: _146  and  _148
REMARK   65  A    between atoms: _148  and  _149
REMARK   66  A    between atoms: _148  and  _151
REMARK   67  A    between atoms: _151  and  _152
REMARK   68  A    between atoms: _152  and  _153
REMARK   69  A    between atoms: _156  and  _158
REMARK   70  A    between atoms: _158  and  _159
REMARK   71  A    between atoms: _158  and  _161
REMARK   72  A    between atoms: _161  and  _162
REMARK   73  A    between atoms: _165  and  _167
REMARK   74  A    between atoms: _167  and  _168
REMARK   75  A    between atoms: _167  and  _170
REMARK   76  A    between atoms: _170  and  _171
REMARK   77  A    between atoms: _174  and  _176
REMARK   78  A    between atoms: _176  and  _177
REMARK   79  A    between atoms: _176  and  _179
REMARK   80  A    between atoms: _179  and  _180
REMARK   81  A    between atoms: _182  and  _184
REMARK   82  A    between atoms: _184  and  _185
REMARK   83  A    between atoms: _184  and  _187
REMARK   84  A    between atoms: _190  and  _192
REMARK   85  A    between atoms: _192  and  _193
REMARK   86  A    between atoms: _195  and  _197
REMARK   87  A    between atoms: _197  and  _198
REMARK   88  A    between atoms: _197  and  _200
REMARK   89  A    between atoms: _200  and  _201
REMARK   90  A    between atoms: _204  and  _206
REMARK   91  A    between atoms: _206  and  _207
REMARK   92  A    between atoms: _206  and  _209
REMARK   93  A    between atoms: _209  and  _210
REMARK   94  A    between atoms: _212  and  _214
REMARK   95  A    between atoms: _214  and  _215
REMARK   96  A    between atoms: _219  and  _220
REMARK   97  A    between atoms: _225  and  _227
REMARK   98  A    between atoms: _227  and  _228
REMARK   99  A    between atoms: _227  and  _230
REMARK  100  A    between atoms: _230  and  _231
REMARK  101  A    between atoms: _237  and  _239
REMARK  102  A    between atoms: _239  and  _240
REMARK  103  A    between atoms: _239  and  _242
REMARK  104  A    between atoms: _245  and  _247
REMARK  105  A    between atoms: _247  and  _248
REMARK  106  A    between atoms: _251  and  _253
REMARK  107  A    between atoms: _253  and  _254
REMARK  108  A    between atoms: _253  and  _256
REMARK  109  A    between atoms: _259  and  _261
REMARK  110  A    between atoms: _261  and  _262
REMARK  111  A    between atoms: _264  and  _266
REMARK  112  A    between atoms: _266  and  _267
REMARK  113  A    between atoms: _266  and  _269
REMARK  114  A    between atoms: _269  and  _270
REMARK  115  A    between atoms: _276  and  _278
REMARK  116  A    between atoms: _278  and  _279
REMARK  117  A    between atoms: _278  and  _281
REMARK  118  A    between atoms: _281  and  _282
REMARK  119  A    between atoms: _287  and  _289
REMARK  120  A    between atoms: _289  and  _290
REMARK  121  A    between atoms: _289  and  _292
REMARK  122  A    between atoms: _292  and  _293
REMARK  123  A    between atoms: _293  and  _294
REMARK  124  A    between atoms: _294  and  _295
REMARK  125  A    between atoms: _304  and  _306
REMARK  126  A    between atoms: _306  and  _307
REMARK  127  A    between atoms: _306  and  _309
REMARK  128  A    between atoms: _309  and  _310
REMARK  129  A    between atoms: _316  and  _318
REMARK  130  A    between atoms: _318  and  _319
REMARK  131  A    between atoms: _321  and  _323
REMARK  132  A    between atoms: _323  and  _324
REMARK  133  A    between atoms: _323  and  _326
REMARK  134  A    between atoms: _326  and  _327
REMARK  135  A    between atoms: _329  and  _331
REMARK  136  A    between atoms: _331  and  _332
REMARK  137  A    between atoms: _331  and  _334
REMARK  138  A    between atoms: _334  and  _335
REMARK  139  A    between atoms: _337  and  _339
REMARK  140  A    between atoms: _339  and  _340
REMARK  141  A    between atoms: _339  and  _342
REMARK  142  A    between atoms: _342  and  _343
REMARK  143  A    between atoms: _343  and  _344
REMARK  144  A    between atoms: _344  and  _345
REMARK  145  A    between atoms: _354  and  _356
REMARK  146  A    between atoms: _356  and  _357
REMARK  147  A    between atoms: _356  and  _359
REMARK  148  A    between atoms: _359  and  _360
REMARK  149  A    between atoms: _360  and  _361
REMARK  150  A    between atoms: _363  and  _365
REMARK  151  A    between atoms: _365  and  _366
REMARK  152  A    between atoms: _368  and  _370
REMARK  153  A    between atoms: _370  and  _371
REMARK  154  A    between atoms: _373  and  _375
REMARK  155  A    between atoms: _375  and  _376
REMARK  156  A    between atoms: _375  and  _378
REMARK  157  A    between atoms: _378  and  _379
REMARK  158  A    between atoms: _382  and  _384
REMARK  159  A    between atoms: _384  and  _385
REMARK  160  A    between atoms: _384  and  _387
REMARK  161  A    between atoms: _390  and  _392
REMARK  162  A    between atoms: _392  and  _393
REMARK  163  A    between atoms: _392  and  _395
REMARK  164  A    between atoms: _395  and  _396
REMARK  165  A    between atoms: _396  and  _397
REMARK  166  A    between atoms: _400  and  _402
REMARK  167  A    between atoms: _402  and  _403
REMARK  168  A    between atoms: _402  and  _405
REMARK  169  A    between atoms: _405  and  _406
REMARK  170  A    between atoms: _411  and  _413
REMARK  171  A    between atoms: _413  and  _414
REMARK  172  A    between atoms: _413  and  _416
REMARK  173  A    between atoms: _416  and  _417
REMARK  174  A    between atoms: _420  and  _422
REMARK  175  A    between atoms: _422  and  _423
REMARK  176  A    between atoms: _422  and  _425
REMARK  177  A    between atoms: _425  and  _426
REMARK  178  A    between atoms: _426  and  _427
REMARK  179  A    between atoms: _429  and  _431
REMARK  180  A    between atoms: _431  and  _432
REMARK  181  A    between atoms: _431  and  _434
REMARK  182  A    between atoms: _434  and  _435
REMARK  183  A    between atoms: _438  and  _440
REMARK  184  A    between atoms: _440  and  _441
REMARK  185  A    between atoms: _440  and  _443
REMARK  186  A    between atoms: _443  and  _444
REMARK  187  A    between atoms: _444  and  _445
REMARK  188  A    between atoms: _445  and  _446
REMARK  189  A    between atoms: _455  and  _457
REMARK  190  A    between atoms: _457  and  _458
REMARK  191  A    between atoms: _457  and  _460
REMARK  192  A    between atoms: _460  and  _461
REMARK  193  A    between atoms: _463  and  _465
REMARK  194  A    between atoms: _465  and  _466
REMARK  195  A    between atoms: _465  and  _468
REMARK  196  A    between atoms: _468  and  _469
REMARK  197  A    between atoms: _474  and  _476
REMARK  198  A    between atoms: _476  and  _477
REMARK  199  A    between atoms: _476  and  _479
REMARK  200  A    between atoms: _479  and  _480
REMARK  201  A    between atoms: _482  and  _484
REMARK  202  A    between atoms: _484  and  _485
REMARK  203  A    between atoms: _484  and  _487
REMARK  204  A    between atoms: _487  and  _488
REMARK  205  A    between atoms: _488  and  _489
REMARK  206  A    between atoms: _489  and  _490
REMARK  207  A    between atoms: _490  and  _491
REMARK  208  A    between atoms: _495  and  _497
REMARK  209  A    between atoms: _497  and  _498
REMARK  210  A    between atoms: _497  and  _500
REMARK  211  A    between atoms: _500  and  _501
REMARK  212  A    between atoms: _504  and  _506
REMARK  213  A    between atoms: _506  and  _507
REMARK  214  A    between atoms: _506  and  _509
REMARK  215  A    between atoms: _509  and  _510
REMARK  216  A    between atoms: _516  and  _518
REMARK  217  A    between atoms: _518  and  _519
REMARK  218  A    between atoms: _518  and  _521
REMARK  219  A    between atoms: _521  and  _522
REMARK  220  A    between atoms: _522  and  _523
REMARK  221  A    between atoms: _523  and  _524
REMARK                            x       y       z     vdW  Elec       q    Type
REMARK                         _______ _______ _______ _____ _____    ______ ____
ROOT
ATOM      1  O   HOH     1      42.166  37.643  18.744  0.00  0.00    +0.000 OA
ENDROOT
TORSDOF 0
