REMARK  Name = ../refined-set-2016/2pq9/2pq9_pocket.pdb
REMARK  259 active torsions:
REMARK  status: ('A' for Active; 'I' for Inactive)
REMARK    1  A    between atoms: _1  and  _3
REMARK    2  A    between atoms: _3  and  _4
REMARK    3  A    between atoms: _3  and  _6
REMARK    4  A    between atoms: _6  and  _7
REMARK    5  A    between atoms: _9  and  _11
REMARK    6  A    between atoms: _11  and  _12
REMARK    7  A    between atoms: _11  and  _14
REMARK    8  A    between atoms: _14  and  _15
REMARK    9  A    between atoms: _15  and  _16
REMARK   10  A    between atoms: _16  and  _17
REMARK   11  A    between atoms: _17  and  _18
REMARK   12  A    between atoms: _22  and  _24
REMARK   13  A    between atoms: _24  and  _25
REMARK   14  A    between atoms: _24  and  _27
REMARK   15  A    between atoms: _27  and  _28
REMARK   16  A    between atoms: _30  and  _32
REMARK   17  A    between atoms: _32  and  _33
REMARK   18  A    between atoms: _32  and  _35
REMARK   19  A    between atoms: _38  and  _40
REMARK   20  A    between atoms: _40  and  _41
REMARK   21  A    between atoms: _40  and  _43
REMARK   22  A    between atoms: _43  and  _44
REMARK   23  A    between atoms: _46  and  _48
REMARK   24  A    between atoms: _48  and  _49
REMARK   25  A    between atoms: _48  and  _51
REMARK   26  A    between atoms: _51  and  _52
REMARK   27  A    between atoms: _57  and  _59
REMARK   28  A    between atoms: _59  and  _60
REMARK   29  A    between atoms: _59  and  _62
REMARK   30  A    between atoms: _62  and  _63
REMARK   31  A    between atoms: _63  and  _64
REMARK   32  A    between atoms: _64  and  _65
REMARK   33  A    between atoms: _74  and  _76
REMARK   34  A    between atoms: _76  and  _77
REMARK   35  A    between atoms: _76  and  _79
REMARK   36  A    between atoms: _79  and  _80
REMARK   37  A    between atoms: _83  and  _85
REMARK   38  A    between atoms: _85  and  _86
REMARK   39  A    between atoms: _85  and  _88
REMARK   40  A    between atoms: _88  and  _89
REMARK   41  A    between atoms: _92  and  _94
REMARK   42  A    between atoms: _94  and  _95
REMARK   43  A    between atoms: _97  and  _99
REMARK   44  A    between atoms: _99  and  _100
REMARK   45  A    between atoms: _99  and  _102
REMARK   46  A    between atoms: _102  and  _103
REMARK   47  A    between atoms: _108  and  _110
REMARK   48  A    between atoms: _110  and  _111
REMARK   49  A    between atoms: _114  and  _116
REMARK   50  A    between atoms: _116  and  _117
REMARK   51  A    between atoms: _119  and  _121
REMARK   52  A    between atoms: _121  and  _122
REMARK   53  A    between atoms: _121  and  _124
REMARK   54  A    between atoms: _124  and  _125
REMARK   55  A    between atoms: _128  and  _130
REMARK   56  A    between atoms: _130  and  _131
REMARK   57  A    between atoms: _134  and  _136
REMARK   58  A    between atoms: _136  and  _137
REMARK   59  A    between atoms: _136  and  _139
REMARK   60  A    between atoms: _139  and  _140
REMARK   61  A    between atoms: _140  and  _141
REMARK   62  A    between atoms: _143  and  _145
REMARK   63  A    between atoms: _145  and  _146
REMARK   64  A    between atoms: _145  and  _148
REMARK   65  A    between atoms: _148  and  _149
REMARK   66  A    between atoms: _149  and  _150
REMARK   67  A    between atoms: _150  and  _151
REMARK   68  A    between atoms: _161  and  _162
REMARK   69  A    between atoms: _167  and  _169
REMARK   70  A    between atoms: _169  and  _170
REMARK   71  A    between atoms: _169  and  _172
REMARK   72  A    between atoms: _172  and  _173
REMARK   73  A    between atoms: _173  and  _174
REMARK   74  A    between atoms: _174  and  _175
REMARK   75  A    between atoms: _184  and  _186
REMARK   76  A    between atoms: _186  and  _187
REMARK   77  A    between atoms: _186  and  _189
REMARK   78  A    between atoms: _189  and  _190
REMARK   79  A    between atoms: _190  and  _191
REMARK   80  A    between atoms: _193  and  _195
REMARK   81  A    between atoms: _195  and  _196
REMARK   82  A    between atoms: _195  and  _198
REMARK   83  A    between atoms: _198  and  _199
REMARK   84  A    between atoms: _199  and  _200
REMARK   85  A    between atoms: _200  and  _201
REMARK   86  A    between atoms: _211  and  _212
REMARK   87  A    between atoms: _217  and  _219
REMARK   88  A    between atoms: _219  and  _220
REMARK   89  A    between atoms: _222  and  _224
REMARK   90  A    between atoms: _224  and  _225
REMARK   91  A    between atoms: _224  and  _227
REMARK   92  A    between atoms: _230  and  _232
REMARK   93  A    between atoms: _232  and  _233
REMARK   94  A    between atoms: _232  and  _235
REMARK   95  A    between atoms: _235  and  _236
REMARK   96  A    between atoms: _238  and  _240
REMARK   97  A    between atoms: _240  and  _241
REMARK   98  A    between atoms: _240  and  _243
REMARK   99  A    between atoms: _243  and  _244
REMARK  100  A    between atoms: _246  and  _248
REMARK  101  A    between atoms: _248  and  _249
REMARK  102  A    between atoms: _248  and  _251
REMARK  103  A    between atoms: _251  and  _252
REMARK  104  A    between atoms: _252  and  _253
REMARK  105  A    between atoms: _258  and  _260
REMARK  106  A    between atoms: _260  and  _261
REMARK  107  A    between atoms: _260  and  _263
REMARK  108  A    between atoms: _263  and  _264
REMARK  109  A    between atoms: _270  and  _272
REMARK  110  A    between atoms: _272  and  _273
REMARK  111  A    between atoms: _272  and  _275
REMARK  112  A    between atoms: _275  and  _276
REMARK  113  A    between atoms: _279  and  _281
REMARK  114  A    between atoms: _281  and  _282
REMARK  115  A    between atoms: _281  and  _284
REMARK  116  A    between atoms: _284  and  _285
REMARK  117  A    between atoms: _288  and  _290
REMARK  118  A    between atoms: _290  and  _291
REMARK  119  A    between atoms: _294  and  _296
REMARK  120  A    between atoms: _296  and  _297
REMARK  121  A    between atoms: _296  and  _299
REMARK  122  A    between atoms: _299  and  _300
REMARK  123  A    between atoms: _303  and  _305
REMARK  124  A    between atoms: _305  and  _306
REMARK  125  A    between atoms: _305  and  _308
REMARK  126  A    between atoms: _311  and  _313
REMARK  127  A    between atoms: _313  and  _314
REMARK  128  A    between atoms: _313  and  _316
REMARK  129  A    between atoms: _316  and  _317
REMARK  130  A    between atoms: _319  and  _321
REMARK  131  A    between atoms: _321  and  _322
REMARK  132  A    between atoms: _321  and  _324
REMARK  133  A    between atoms: _324  and  _325
REMARK  134  A    between atoms: _325  and  _326
REMARK  135  A    between atoms: _326  and  _327
REMARK  136  A    between atoms: _327  and  _328
REMARK  137  A    between atoms: _333  and  _334
REMARK  138  A    between atoms: _339  and  _341
REMARK  139  A    between atoms: _341  and  _342
REMARK  140  A    between atoms: _341  and  _344
REMARK  141  A    between atoms: _344  and  _345
REMARK  142  A    between atoms: _350  and  _351
REMARK  143  A    between atoms: _353  and  _355
REMARK  144  A    between atoms: _355  and  _356
REMARK  145  A    between atoms: _355  and  _358
REMARK  146  A    between atoms: _358  and  _359
REMARK  147  A    between atoms: _362  and  _364
REMARK  148  A    between atoms: _364  and  _365
REMARK  149  A    between atoms: _364  and  _367
REMARK  150  A    between atoms: _367  and  _368
REMARK  151  A    between atoms: _371  and  _373
REMARK  152  A    between atoms: _373  and  _374
REMARK  153  A    between atoms: _373  and  _376
REMARK  154  A    between atoms: _376  and  _377
REMARK  155  A    between atoms: _380  and  _382
REMARK  156  A    between atoms: _382  and  _383
REMARK  157  A    between atoms: _382  and  _385
REMARK  158  A    between atoms: _385  and  _386
REMARK  159  A    between atoms: _389  and  _391
REMARK  160  A    between atoms: _391  and  _392
REMARK  161  A    between atoms: _391  and  _394
REMARK  162  A    between atoms: _394  and  _395
REMARK  163  A    between atoms: _397  and  _399
REMARK  164  A    between atoms: _399  and  _400
REMARK  165  A    between atoms: _399  and  _402
REMARK  166  A    between atoms: _402  and  _403
REMARK  167  A    between atoms: _408  and  _409
REMARK  168  A    between atoms: _411  and  _413
REMARK  169  A    between atoms: _413  and  _414
REMARK  170  A    between atoms: _413  and  _416
REMARK  171  A    between atoms: _416  and  _417
REMARK  172  A    between atoms: _420  and  _422
REMARK  173  A    between atoms: _422  and  _423
REMARK  174  A    between atoms: _422  and  _425
REMARK  175  A    between atoms: _425  and  _426
REMARK  176  A    between atoms: _431  and  _433
REMARK  177  A    between atoms: _433  and  _434
REMARK  178  A    between atoms: _433  and  _436
REMARK  179  A    between atoms: _436  and  _437
REMARK  180  A    between atoms: _441  and  _442
REMARK  181  A    between atoms: _447  and  _449
REMARK  182  A    between atoms: _449  and  _450
REMARK  183  A    between atoms: _449  and  _452
REMARK  184  A    between atoms: _452  and  _453
REMARK  185  A    between atoms: _456  and  _458
REMARK  186  A    between atoms: _458  and  _459
REMARK  187  A    between atoms: _462  and  _464
REMARK  188  A    between atoms: _464  and  _465
REMARK  189  A    between atoms: _464  and  _467
REMARK  190  A    between atoms: _467  and  _468
REMARK  191  A    between atoms: _468  and  _469
REMARK  192  A    between atoms: _471  and  _473
REMARK  193  A    between atoms: _473  and  _474
REMARK  194  A    between atoms: _473  and  _476
REMARK  195  A    between atoms: _476  and  _477
REMARK  196  A    between atoms: _482  and  _484
REMARK  197  A    between atoms: _484  and  _485
REMARK  198  A    between atoms: _484  and  _487
REMARK  199  A    between atoms: _487  and  _488
REMARK  200  A    between atoms: _498  and  _500
REMARK  201  A    between atoms: _500  and  _501
REMARK  202  A    between atoms: _500  and  _503
REMARK  203  A    between atoms: _506  and  _508
REMARK  204  A    between atoms: _508  and  _509
REMARK  205  A    between atoms: _508  and  _511
REMARK  206  A    between atoms: _511  and  _512
REMARK  207  A    between atoms: _512  and  _513
REMARK  208  A    between atoms: _513  and  _514
REMARK  209  A    between atoms: _514  and  _515
REMARK  210  A    between atoms: _519  and  _521
REMARK  211  A    between atoms: _521  and  _522
REMARK  212  A    between atoms: _521  and  _524
REMARK  213  A    between atoms: _524  and  _525
REMARK  214  A    between atoms: _525  and  _526
REMARK  215  A    between atoms: _529  and  _531
REMARK  216  A    between atoms: _531  and  _532
REMARK  217  A    between atoms: _531  and  _534
REMARK  218  A    between atoms: _534  and  _535
REMARK  219  A    between atoms: _538  and  _540
REMARK  220  A    between atoms: _540  and  _541
REMARK  221  A    between atoms: _540  and  _543
REMARK  222  A    between atoms: _543  and  _544
REMARK  223  A    between atoms: _544  and  _545
REMARK  224  A    between atoms: _545  and  _546
REMARK  225  A    between atoms: _555  and  _557
REMARK  226  A    between atoms: _557  and  _558
REMARK  227  A    between atoms: _557  and  _560
REMARK  228  A    between atoms: _560  and  _561
REMARK  229  A    between atoms: _564  and  _566
REMARK  230  A    between atoms: _566  and  _567
REMARK  231  A    between atoms: _566  and  _569
REMARK  232  A    between atoms: _569  and  _570
REMARK  233  A    between atoms: _575  and  _577
REMARK  234  A    between atoms: _577  and  _578
REMARK  235  A    between atoms: _577  and  _580
REMARK  236  A    between atoms: _580  and  _581
REMARK  237  A    between atoms: _581  and  _582
REMARK  238  A    between atoms: _582  and  _583
REMARK  239  A    between atoms: _592  and  _594
REMARK  240  A    between atoms: _594  and  _595
REMARK  241  A    between atoms: _594  and  _597
REMARK  242  A    between atoms: _597  and  _598
REMARK  243  A    between atoms: _598  and  _599
REMARK  244  A    between atoms: _601  and  _603
REMARK  245  A    between atoms: _603  and  _604
REMARK  246  A    between atoms: _603  and  _606
REMARK  247  A    between atoms: _606  and  _607
REMARK  248  A    between atoms: _607  and  _608
REMARK  249  A    between atoms: _610  and  _612
REMARK  250  A    between atoms: _612  and  _613
REMARK  251  A    between atoms: _612  and  _615
REMARK  252  A    between atoms: _615  and  _616
REMARK  253  A    between atoms: _616  and  _617
REMARK  254  A    between atoms: _617  and  _618
REMARK  255  A    between atoms: _618  and  _619
REMARK  256  A    between atoms: _623  and  _625
REMARK  257  A    between atoms: _625  and  _626
REMARK  258  A    between atoms: _625  and  _628
REMARK  259  A    between atoms: _628  and  _629
REMARK                            x       y       z     vdW  Elec       q    Type
REMARK                         _______ _______ _______ _____ _____    ______ ____
ROOT
ATOM      1  C   VAL A   4      60.205  21.451  26.844  0.00  0.00    +0.241 C 
ATOM      2  N   SER A   5      61.442  21.135  27.222  0.00  0.00    -0.295 N 
ATOM      3  H   SER A   5      61.586  20.619  28.113  0.00  0.00    +0.150 HD
ATOM      4  O   VAL A   4      59.959  22.022  25.774  0.00  0.00    -0.273 OA
ENDROOT
BRANCH   1   5
ATOM      5  CA  VAL A   4      59.075  21.057  27.808  0.00  0.00    +0.149 C 
BRANCH   5   7
ATOM      6  C   SER A   3      59.137  18.646  27.601  0.00  0.00    +0.243 C 
ATOM      7  N   VAL A   4      59.280  19.725  28.361  0.00  0.00    -0.297 N 
ATOM      8  H   VAL A   4      59.541  19.618  29.362  0.00  0.00    +0.150 HD
ATOM      9  O   SER A   3      58.812  18.701  26.422  0.00  0.00    -0.273 OA
BRANCH   6  10
ATOM     10  CA  SER A   3      59.400  17.315  28.278  0.00  0.00    +0.178 C 
BRANCH  10  12
ATOM     11  C   LYS A   2      61.814  17.617  28.511  0.00  0.00    +0.241 C 
ATOM     12  N   SER A   3      60.631  17.368  29.077  0.00  0.00    -0.295 N 
ATOM     13  H   SER A   3      60.580  17.208  30.103  0.00  0.00    +0.150 HD
ATOM     14  O   LYS A   2      61.952  17.851  27.311  0.00  0.00    -0.273 OA
BRANCH  11  15
ATOM     15  CA  LYS A   2      63.040  17.615  29.441  0.00  0.00    +0.149 C 
BRANCH  15  17
ATOM     16  C   SER A   1      62.446  19.579  30.734  0.00  0.00    +0.241 C 
ATOM     17  N   LYS A   2      62.725  18.281  30.711  0.00  0.00    -0.297 N 
ATOM     18  H   LYS A   2      62.720  17.734  31.596  0.00  0.00    +0.150 HD
ATOM     19  O   SER A   1      62.482  20.280  29.729  0.00  0.00    -0.274 OA
BRANCH  16  20
ATOM     20  CA  SER A   1      62.065  20.189  32.091  0.00  0.00    +0.174 C 
BRANCH  20  21
ATOM     21  N   SER A   1      62.916  21.323  32.421  0.00  0.00    -0.236 NA
ATOM     22  H   SER A   1      62.494  22.272  32.475  0.00  0.00    +0.142 HD
ENDBRANCH  20  21
BRANCH  20  23
ATOM     23  CB  SER A   1      60.594  20.645  32.015  0.00  0.00    +0.163 C 
BRANCH  23  24
ATOM     24  OG  SER A   1      59.792  19.686  31.326  0.00  0.00    -0.380 OA
ATOM     25  H   SER A   1      59.831  18.820  31.805  0.00  0.00    +0.211 HD
ENDBRANCH  23  24
ENDBRANCH  20  23
ENDBRANCH  16  20
ENDBRANCH  15  17
BRANCH  15  26
ATOM     26  CB  LYS A   2      63.511  16.170  29.710  0.00  0.00    +0.029 C 
BRANCH  26  27
ATOM     27  CG  LYS A   2      63.679  15.306  28.437  0.00  0.00    +0.000 C 
BRANCH  27  28
ATOM     28  CD  LYS A   2      62.520  14.327  28.245  0.00  0.00    -0.024 C 
BRANCH  28  29
ATOM     29  CE  LYS A   2      62.654  13.135  29.178  0.00  0.00    -0.086 C 
BRANCH  29  30
ATOM     30  NZ  LYS A   2      61.426  12.301  29.221  0.00  0.00    +0.380 N 
ATOM     31  HZ1 LYS A   2      61.573  11.503  29.872  0.00  0.00    -0.089 HD
ATOM     32  HZ2 LYS A   2      60.628  12.879  29.553  0.00  0.00    -0.089 HD
ATOM     33  HZ3 LYS A   2      61.221  11.939  28.268  0.00  0.00    -0.089 HD
ENDBRANCH  29  30
ENDBRANCH  28  29
ENDBRANCH  27  28
ENDBRANCH  26  27
ENDBRANCH  15  26
ENDBRANCH  11  15
ENDBRANCH  10  12
BRANCH  10  34
ATOM     34  CB  SER A   3      58.201  16.935  29.161  0.00  0.00    +0.166 C 
BRANCH  34  35
ATOM     35  OG  SER A   3      58.289  15.573  29.575  0.00  0.00    -0.380 OA
ATOM     36  H   SER A   3      58.297  14.987  28.777  0.00  0.00    +0.211 HD
ENDBRANCH  34  35
ENDBRANCH  10  34
ENDBRANCH   6  10
ENDBRANCH   5   7
BRANCH   5  37
ATOM     37  CB  VAL A   4      59.007  22.111  28.935  0.00  0.00    +0.027 C 
ATOM     38  CG2 VAL A   4      57.767  21.830  29.813  0.00  0.00    +0.002 C 
ATOM     39  CG1 VAL A   4      58.891  23.531  28.321  0.00  0.00    +0.002 C 
ENDBRANCH   5  37
ENDBRANCH   1   5
BRANCH   2  40
ATOM     40  CA  SER A   5      62.597  21.497  26.413  0.00  0.00    +0.178 C 
BRANCH  40  41
ATOM     41  C   SER A   5      62.545  20.946  24.997  0.00  0.00    +0.243 C 
ATOM     42  N   ASN A   6      62.266  19.657  24.848  0.00  0.00    -0.297 N 
ATOM     43  H   ASN A   6      62.056  19.057  25.671  0.00  0.00    +0.150 HD
ATOM     44  O   SER A   5      62.760  21.687  24.034  0.00  0.00    -0.273 OA
BRANCH  42  45
ATOM     45  CA  ASN A   6      62.263  19.105  23.494  0.00  0.00    +0.158 C 
BRANCH  45  46
ATOM     46  C   ASN A   6      61.067  19.529  22.647  0.00  0.00    +0.241 C 
ATOM     47  N   ARG A   7      59.924  19.786  23.290  0.00  0.00    -0.298 N 
ATOM     48  H   ARG A   7      59.863  19.638  24.318  0.00  0.00    +0.150 HD
ATOM     49  O   ASN A   6      61.189  19.631  21.424  0.00  0.00    -0.273 OA
BRANCH  47  50
ATOM     50  CA  ARG A   7      58.757  20.276  22.552  0.00  0.00    +0.137 C 
BRANCH  50  51
ATOM     51  C   ARG A   7      59.055  21.700  22.072  0.00  0.00    +0.227 C 
ATOM     52  O   ARG A   7      58.782  22.044  20.920  0.00  0.00    -0.286 OA
ENDBRANCH  50  51
BRANCH  50  53
ATOM     53  CB  ARG A   7      57.514  20.313  23.446  0.00  0.00    +0.031 C 
BRANCH  53  54
ATOM     54  CG  ARG A   7      56.848  18.933  23.626  0.00  0.00    +0.045 C 
BRANCH  54  55
ATOM     55  CD  ARG A   7      55.892  19.046  24.800  0.00  0.00    +0.174 C 
BRANCH  55  56
ATOM     56  NE  ARG A   7      55.014  17.894  25.043  0.00  0.00    -0.265 N 
ATOM     57  CZ  ARG A   7      55.390  16.760  25.629  0.00  0.00    +0.342 C 
ATOM     58  NH2 ARG A   7      56.663  16.584  25.981  0.00  0.00    -0.292 N 
ATOM     59 HH21 ARG A   7      56.958  15.698  26.439  0.00  0.00    +0.255 HD
ATOM     60 HH22 ARG A   7      57.361  17.332  25.798  0.00  0.00    +0.255 HD
ATOM     61  NH1 ARG A   7      54.498  15.786  25.826  0.00  0.00    -0.292 N 
ATOM     62 HH11 ARG A   7      54.789  14.899  26.284  0.00  0.00    +0.255 HD
ATOM     63 HH12 ARG A   7      53.512  15.915  25.522  0.00  0.00    +0.255 HD
ATOM     64  HE  ARG A   7      54.024  17.970  24.734  0.00  0.00    +0.259 HD
ENDBRANCH  55  56
ENDBRANCH  54  55
ENDBRANCH  53  54
ENDBRANCH  50  53
ENDBRANCH  47  50
ENDBRANCH  45  46
BRANCH  45  65
ATOM     65  CB  ASN A   6      62.463  17.588  23.520  0.00  0.00    +0.114 C 
BRANCH  65  66
ATOM     66  CG  ASN A   6      63.943  17.204  23.451  0.00  0.00    +0.222 C 
ATOM     67  ND2 ASN A   6      64.227  15.909  23.472  0.00  0.00    -0.329 N 
ATOM     68 HD21 ASN A   6      63.461  15.210  23.547  0.00  0.00    +0.145 HD
ATOM     69 HD22 ASN A   6      65.216  15.593  23.414  0.00  0.00    +0.145 HD
ATOM     70  OD1 ASN A   6      64.810  18.071  23.364  0.00  0.00    -0.275 OA
ENDBRANCH  65  66
ENDBRANCH  45  65
ENDBRANCH  42  45
ENDBRANCH  40  41
BRANCH  40  71
ATOM     71  CB  SER A   5      63.886  21.005  27.091  0.00  0.00    +0.166 C 
BRANCH  71  72
ATOM     72  OG  SER A   5      64.227  21.808  28.215  0.00  0.00    -0.380 OA
ATOM     73  H   SER A   5      63.493  21.775  28.878  0.00  0.00    +0.211 HD
ENDBRANCH  71  72
ENDBRANCH  40  71
ENDBRANCH   2  40
TORSDOF 32
REMARK  Name = ../refined-set-2016/2pq9/2pq9_pocket.pdb
REMARK  259 active torsions:
REMARK  status: ('A' for Active; 'I' for Inactive)
REMARK    1  A    between atoms: _1  and  _3
REMARK    2  A    between atoms: _3  and  _4
REMARK    3  A    between atoms: _3  and  _6
REMARK    4  A    between atoms: _6  and  _7
REMARK    5  A    between atoms: _9  and  _11
REMARK    6  A    between atoms: _11  and  _12
REMARK    7  A    between atoms: _11  and  _14
REMARK    8  A    between atoms: _14  and  _15
REMARK    9  A    between atoms: _15  and  _16
REMARK   10  A    between atoms: _16  and  _17
REMARK   11  A    between atoms: _17  and  _18
REMARK   12  A    between atoms: _22  and  _24
REMARK   13  A    between atoms: _24  and  _25
REMARK   14  A    between atoms: _24  and  _27
REMARK   15  A    between atoms: _27  and  _28
REMARK   16  A    between atoms: _30  and  _32
REMARK   17  A    between atoms: _32  and  _33
REMARK   18  A    between atoms: _32  and  _35
REMARK   19  A    between atoms: _38  and  _40
REMARK   20  A    between atoms: _40  and  _41
REMARK   21  A    between atoms: _40  and  _43
REMARK   22  A    between atoms: _43  and  _44
REMARK   23  A    between atoms: _46  and  _48
REMARK   24  A    between atoms: _48  and  _49
REMARK   25  A    between atoms: _48  and  _51
REMARK   26  A    between atoms: _51  and  _52
REMARK   27  A    between atoms: _57  and  _59
REMARK   28  A    between atoms: _59  and  _60
REMARK   29  A    between atoms: _59  and  _62
REMARK   30  A    between atoms: _62  and  _63
REMARK   31  A    between atoms: _63  and  _64
REMARK   32  A    between atoms: _64  and  _65
REMARK   33  A    between atoms: _74  and  _76
REMARK   34  A    between atoms: _76  and  _77
REMARK   35  A    between atoms: _76  and  _79
REMARK   36  A    between atoms: _79  and  _80
REMARK   37  A    between atoms: _83  and  _85
REMARK   38  A    between atoms: _85  and  _86
REMARK   39  A    between atoms: _85  and  _88
REMARK   40  A    between atoms: _88  and  _89
REMARK   41  A    between atoms: _92  and  _94
REMARK   42  A    between atoms: _94  and  _95
REMARK   43  A    between atoms: _97  and  _99
REMARK   44  A    between atoms: _99  and  _100
REMARK   45  A    between atoms: _99  and  _102
REMARK   46  A    between atoms: _102  and  _103
REMARK   47  A    between atoms: _108  and  _110
REMARK   48  A    between atoms: _110  and  _111
REMARK   49  A    between atoms: _114  and  _116
REMARK   50  A    between atoms: _116  and  _117
REMARK   51  A    between atoms: _119  and  _121
REMARK   52  A    between atoms: _121  and  _122
REMARK   53  A    between atoms: _121  and  _124
REMARK   54  A    between atoms: _124  and  _125
REMARK   55  A    between atoms: _128  and  _130
REMARK   56  A    between atoms: _130  and  _131
REMARK   57  A    between atoms: _134  and  _136
REMARK   58  A    between atoms: _136  and  _137
REMARK   59  A    between atoms: _136  and  _139
REMARK   60  A    between atoms: _139  and  _140
REMARK   61  A    between atoms: _140  and  _141
REMARK   62  A    between atoms: _143  and  _145
REMARK   63  A    between atoms: _145  and  _146
REMARK   64  A    between atoms: _145  and  _148
REMARK   65  A    between atoms: _148  and  _149
REMARK   66  A    between atoms: _149  and  _150
REMARK   67  A    between atoms: _150  and  _151
REMARK   68  A    between atoms: _161  and  _162
REMARK   69  A    between atoms: _167  and  _169
REMARK   70  A    between atoms: _169  and  _170
REMARK   71  A    between atoms: _169  and  _172
REMARK   72  A    between atoms: _172  and  _173
REMARK   73  A    between atoms: _173  and  _174
REMARK   74  A    between atoms: _174  and  _175
REMARK   75  A    between atoms: _184  and  _186
REMARK   76  A    between atoms: _186  and  _187
REMARK   77  A    between atoms: _186  and  _189
REMARK   78  A    between atoms: _189  and  _190
REMARK   79  A    between atoms: _190  and  _191
REMARK   80  A    between atoms: _193  and  _195
REMARK   81  A    between atoms: _195  and  _196
REMARK   82  A    between atoms: _195  and  _198
REMARK   83  A    between atoms: _198  and  _199
REMARK   84  A    between atoms: _199  and  _200
REMARK   85  A    between atoms: _200  and  _201
REMARK   86  A    between atoms: _211  and  _212
REMARK   87  A    between atoms: _217  and  _219
REMARK   88  A    between atoms: _219  and  _220
REMARK   89  A    between atoms: _222  and  _224
REMARK   90  A    between atoms: _224  and  _225
REMARK   91  A    between atoms: _224  and  _227
REMARK   92  A    between atoms: _230  and  _232
REMARK   93  A    between atoms: _232  and  _233
REMARK   94  A    between atoms: _232  and  _235
REMARK   95  A    between atoms: _235  and  _236
REMARK   96  A    between atoms: _238  and  _240
REMARK   97  A    between atoms: _240  and  _241
REMARK   98  A    between atoms: _240  and  _243
REMARK   99  A    between atoms: _243  and  _244
REMARK  100  A    between atoms: _246  and  _248
REMARK  101  A    between atoms: _248  and  _249
REMARK  102  A    between atoms: _248  and  _251
REMARK  103  A    between atoms: _251  and  _252
REMARK  104  A    between atoms: _252  and  _253
REMARK  105  A    between atoms: _258  and  _260
REMARK  106  A    between atoms: _260  and  _261
REMARK  107  A    between atoms: _260  and  _263
REMARK  108  A    between atoms: _263  and  _264
REMARK  109  A    between atoms: _270  and  _272
REMARK  110  A    between atoms: _272  and  _273
REMARK  111  A    between atoms: _272  and  _275
REMARK  112  A    between atoms: _275  and  _276
REMARK  113  A    between atoms: _279  and  _281
REMARK  114  A    between atoms: _281  and  _282
REMARK  115  A    between atoms: _281  and  _284
REMARK  116  A    between atoms: _284  and  _285
REMARK  117  A    between atoms: _288  and  _290
REMARK  118  A    between atoms: _290  and  _291
REMARK  119  A    between atoms: _294  and  _296
REMARK  120  A    between atoms: _296  and  _297
REMARK  121  A    between atoms: _296  and  _299
REMARK  122  A    between atoms: _299  and  _300
REMARK  123  A    between atoms: _303  and  _305
REMARK  124  A    between atoms: _305  and  _306
REMARK  125  A    between atoms: _305  and  _308
REMARK  126  A    between atoms: _311  and  _313
REMARK  127  A    between atoms: _313  and  _314
REMARK  128  A    between atoms: _313  and  _316
REMARK  129  A    between atoms: _316  and  _317
REMARK  130  A    between atoms: _319  and  _321
REMARK  131  A    between atoms: _321  and  _322
REMARK  132  A    between atoms: _321  and  _324
REMARK  133  A    between atoms: _324  and  _325
REMARK  134  A    between atoms: _325  and  _326
REMARK  135  A    between atoms: _326  and  _327
REMARK  136  A    between atoms: _327  and  _328
REMARK  137  A    between atoms: _333  and  _334
REMARK  138  A    between atoms: _339  and  _341
REMARK  139  A    between atoms: _341  and  _342
REMARK  140  A    between atoms: _341  and  _344
REMARK  141  A    between atoms: _344  and  _345
REMARK  142  A    between atoms: _350  and  _351
REMARK  143  A    between atoms: _353  and  _355
REMARK  144  A    between atoms: _355  and  _356
REMARK  145  A    between atoms: _355  and  _358
REMARK  146  A    between atoms: _358  and  _359
REMARK  147  A    between atoms: _362  and  _364
REMARK  148  A    between atoms: _364  and  _365
REMARK  149  A    between atoms: _364  and  _367
REMARK  150  A    between atoms: _367  and  _368
REMARK  151  A    between atoms: _371  and  _373
REMARK  152  A    between atoms: _373  and  _374
REMARK  153  A    between atoms: _373  and  _376
REMARK  154  A    between atoms: _376  and  _377
REMARK  155  A    between atoms: _380  and  _382
REMARK  156  A    between atoms: _382  and  _383
REMARK  157  A    between atoms: _382  and  _385
REMARK  158  A    between atoms: _385  and  _386
REMARK  159  A    between atoms: _389  and  _391
REMARK  160  A    between atoms: _391  and  _392
REMARK  161  A    between atoms: _391  and  _394
REMARK  162  A    between atoms: _394  and  _395
REMARK  163  A    between atoms: _397  and  _399
REMARK  164  A    between atoms: _399  and  _400
REMARK  165  A    between atoms: _399  and  _402
REMARK  166  A    between atoms: _402  and  _403
REMARK  167  A    between atoms: _408  and  _409
REMARK  168  A    between atoms: _411  and  _413
REMARK  169  A    between atoms: _413  and  _414
REMARK  170  A    between atoms: _413  and  _416
REMARK  171  A    between atoms: _416  and  _417
REMARK  172  A    between atoms: _420  and  _422
REMARK  173  A    between atoms: _422  and  _423
REMARK  174  A    between atoms: _422  and  _425
REMARK  175  A    between atoms: _425  and  _426
REMARK  176  A    between atoms: _431  and  _433
REMARK  177  A    between atoms: _433  and  _434
REMARK  178  A    between atoms: _433  and  _436
REMARK  179  A    between atoms: _436  and  _437
REMARK  180  A    between atoms: _441  and  _442
REMARK  181  A    between atoms: _447  and  _449
REMARK  182  A    between atoms: _449  and  _450
REMARK  183  A    between atoms: _449  and  _452
REMARK  184  A    between atoms: _452  and  _453
REMARK  185  A    between atoms: _456  and  _458
REMARK  186  A    between atoms: _458  and  _459
REMARK  187  A    between atoms: _462  and  _464
REMARK  188  A    between atoms: _464  and  _465
REMARK  189  A    between atoms: _464  and  _467
REMARK  190  A    between atoms: _467  and  _468
REMARK  191  A    between atoms: _468  and  _469
REMARK  192  A    between atoms: _471  and  _473
REMARK  193  A    between atoms: _473  and  _474
REMARK  194  A    between atoms: _473  and  _476
REMARK  195  A    between atoms: _476  and  _477
REMARK  196  A    between atoms: _482  and  _484
REMARK  197  A    between atoms: _484  and  _485
REMARK  198  A    between atoms: _484  and  _487
REMARK  199  A    between atoms: _487  and  _488
REMARK  200  A    between atoms: _498  and  _500
REMARK  201  A    between atoms: _500  and  _501
REMARK  202  A    between atoms: _500  and  _503
REMARK  203  A    between atoms: _506  and  _508
REMARK  204  A    between atoms: _508  and  _509
REMARK  205  A    between atoms: _508  and  _511
REMARK  206  A    between atoms: _511  and  _512
REMARK  207  A    between atoms: _512  and  _513
REMARK  208  A    between atoms: _513  and  _514
REMARK  209  A    between atoms: _514  and  _515
REMARK  210  A    between atoms: _519  and  _521
REMARK  211  A    between atoms: _521  and  _522
REMARK  212  A    between atoms: _521  and  _524
REMARK  213  A    between atoms: _524  and  _525
REMARK  214  A    between atoms: _525  and  _526
REMARK  215  A    between atoms: _529  and  _531
REMARK  216  A    between atoms: _531  and  _532
REMARK  217  A    between atoms: _531  and  _534
REMARK  218  A    between atoms: _534  and  _535
REMARK  219  A    between atoms: _538  and  _540
REMARK  220  A    between atoms: _540  and  _541
REMARK  221  A    between atoms: _540  and  _543
REMARK  222  A    between atoms: _543  and  _544
REMARK  223  A    between atoms: _544  and  _545
REMARK  224  A    between atoms: _545  and  _546
REMARK  225  A    between atoms: _555  and  _557
REMARK  226  A    between atoms: _557  and  _558
REMARK  227  A    between atoms: _557  and  _560
REMARK  228  A    between atoms: _560  and  _561
REMARK  229  A    between atoms: _564  and  _566
REMARK  230  A    between atoms: _566  and  _567
REMARK  231  A    between atoms: _566  and  _569
REMARK  232  A    between atoms: _569  and  _570
REMARK  233  A    between atoms: _575  and  _577
REMARK  234  A    between atoms: _577  and  _578
REMARK  235  A    between atoms: _577  and  _580
REMARK  236  A    between atoms: _580  and  _581
REMARK  237  A    between atoms: _581  and  _582
REMARK  238  A    between atoms: _582  and  _583
REMARK  239  A    between atoms: _592  and  _594
REMARK  240  A    between atoms: _594  and  _595
REMARK  241  A    between atoms: _594  and  _597
REMARK  242  A    between atoms: _597  and  _598
REMARK  243  A    between atoms: _598  and  _599
REMARK  244  A    between atoms: _601  and  _603
REMARK  245  A    between atoms: _603  and  _604
REMARK  246  A    between atoms: _603  and  _606
REMARK  247  A    between atoms: _606  and  _607
REMARK  248  A    between atoms: _607  and  _608
REMARK  249  A    between atoms: _610  and  _612
REMARK  250  A    between atoms: _612  and  _613
REMARK  251  A    between atoms: _612  and  _615
REMARK  252  A    between atoms: _615  and  _616
REMARK  253  A    between atoms: _616  and  _617
REMARK  254  A    between atoms: _617  and  _618
REMARK  255  A    between atoms: _618  and  _619
REMARK  256  A    between atoms: _623  and  _625
REMARK  257  A    between atoms: _625  and  _626
REMARK  258  A    between atoms: _625  and  _628
REMARK  259  A    between atoms: _628  and  _629
REMARK                            x       y       z     vdW  Elec       q    Type
REMARK                         _______ _______ _______ _____ _____    ______ ____
ROOT
ATOM      1  CA  ASP A   1      67.834  13.803  25.245  0.00  0.00    +0.144 C 
ENDROOT
BRANCH   1   2
ATOM      2  N   ASP A   1      69.017  13.722  26.113  0.00  0.00    -0.239 NA
ATOM      3  H   ASP A   1      68.909  13.625  27.143  0.00  0.00    +0.142 HD
ENDBRANCH   1   2
BRANCH   1   4
ATOM      4  C   ASP A   1      67.750  15.122  24.490  0.00  0.00    +0.225 C 
ATOM      5  O   ASP A   1      67.340  15.144  23.341  0.00  0.00    -0.287 OA
ENDBRANCH   1   4
BRANCH   1   6
ATOM      6  CB  ASP A   1      66.551  13.616  26.051  0.00  0.00    +0.139 C 
BRANCH   6   7
ATOM      7  CG  ASP A   1      66.270  12.167  26.399  0.00  0.00    +0.367 C 
ATOM      8  OD2 ASP A   1      65.218  11.952  27.043  0.00  0.00    -0.246 OA
ATOM      9  OD1 ASP A   1      67.060  11.259  26.034  0.00  0.00    -0.246 OA
ENDBRANCH   6   7
ENDBRANCH   1   6
TORSDOF 4
REMARK  Name = ../refined-set-2016/2pq9/2pq9_pocket.pdb
REMARK  259 active torsions:
REMARK  status: ('A' for Active; 'I' for Inactive)
REMARK    1  A    between atoms: _1  and  _3
REMARK    2  A    between atoms: _3  and  _4
REMARK    3  A    between atoms: _3  and  _6
REMARK    4  A    between atoms: _6  and  _7
REMARK    5  A    between atoms: _9  and  _11
REMARK    6  A    between atoms: _11  and  _12
REMARK    7  A    between atoms: _11  and  _14
REMARK    8  A    between atoms: _14  and  _15
REMARK    9  A    between atoms: _15  and  _16
REMARK   10  A    between atoms: _16  and  _17
REMARK   11  A    between atoms: _17  and  _18
REMARK   12  A    between atoms: _22  and  _24
REMARK   13  A    between atoms: _24  and  _25
REMARK   14  A    between atoms: _24  and  _27
REMARK   15  A    between atoms: _27  and  _28
REMARK   16  A    between atoms: _30  and  _32
REMARK   17  A    between atoms: _32  and  _33
REMARK   18  A    between atoms: _32  and  _35
REMARK   19  A    between atoms: _38  and  _40
REMARK   20  A    between atoms: _40  and  _41
REMARK   21  A    between atoms: _40  and  _43
REMARK   22  A    between atoms: _43  and  _44
REMARK   23  A    between atoms: _46  and  _48
REMARK   24  A    between atoms: _48  and  _49
REMARK   25  A    between atoms: _48  and  _51
REMARK   26  A    between atoms: _51  and  _52
REMARK   27  A    between atoms: _57  and  _59
REMARK   28  A    between atoms: _59  and  _60
REMARK   29  A    between atoms: _59  and  _62
REMARK   30  A    between atoms: _62  and  _63
REMARK   31  A    between atoms: _63  and  _64
REMARK   32  A    between atoms: _64  and  _65
REMARK   33  A    between atoms: _74  and  _76
REMARK   34  A    between atoms: _76  and  _77
REMARK   35  A    between atoms: _76  and  _79
REMARK   36  A    between atoms: _79  and  _80
REMARK   37  A    between atoms: _83  and  _85
REMARK   38  A    between atoms: _85  and  _86
REMARK   39  A    between atoms: _85  and  _88
REMARK   40  A    between atoms: _88  and  _89
REMARK   41  A    between atoms: _92  and  _94
REMARK   42  A    between atoms: _94  and  _95
REMARK   43  A    between atoms: _97  and  _99
REMARK   44  A    between atoms: _99  and  _100
REMARK   45  A    between atoms: _99  and  _102
REMARK   46  A    between atoms: _102  and  _103
REMARK   47  A    between atoms: _108  and  _110
REMARK   48  A    between atoms: _110  and  _111
REMARK   49  A    between atoms: _114  and  _116
REMARK   50  A    between atoms: _116  and  _117
REMARK   51  A    between atoms: _119  and  _121
REMARK   52  A    between atoms: _121  and  _122
REMARK   53  A    between atoms: _121  and  _124
REMARK   54  A    between atoms: _124  and  _125
REMARK   55  A    between atoms: _128  and  _130
REMARK   56  A    between atoms: _130  and  _131
REMARK   57  A    between atoms: _134  and  _136
REMARK   58  A    between atoms: _136  and  _137
REMARK   59  A    between atoms: _136  and  _139
REMARK   60  A    between atoms: _139  and  _140
REMARK   61  A    between atoms: _140  and  _141
REMARK   62  A    between atoms: _143  and  _145
REMARK   63  A    between atoms: _145  and  _146
REMARK   64  A    between atoms: _145  and  _148
REMARK   65  A    between atoms: _148  and  _149
REMARK   66  A    between atoms: _149  and  _150
REMARK   67  A    between atoms: _150  and  _151
REMARK   68  A    between atoms: _161  and  _162
REMARK   69  A    between atoms: _167  and  _169
REMARK   70  A    between atoms: _169  and  _170
REMARK   71  A    between atoms: _169  and  _172
REMARK   72  A    between atoms: _172  and  _173
REMARK   73  A    between atoms: _173  and  _174
REMARK   74  A    between atoms: _174  and  _175
REMARK   75  A    between atoms: _184  and  _186
REMARK   76  A    between atoms: _186  and  _187
REMARK   77  A    between atoms: _186  and  _189
REMARK   78  A    between atoms: _189  and  _190
REMARK   79  A    between atoms: _190  and  _191
REMARK   80  A    between atoms: _193  and  _195
REMARK   81  A    between atoms: _195  and  _196
REMARK   82  A    between atoms: _195  and  _198
REMARK   83  A    between atoms: _198  and  _199
REMARK   84  A    between atoms: _199  and  _200
REMARK   85  A    between atoms: _200  and  _201
REMARK   86  A    between atoms: _211  and  _212
REMARK   87  A    between atoms: _217  and  _219
REMARK   88  A    between atoms: _219  and  _220
REMARK   89  A    between atoms: _222  and  _224
REMARK   90  A    between atoms: _224  and  _225
REMARK   91  A    between atoms: _224  and  _227
REMARK   92  A    between atoms: _230  and  _232
REMARK   93  A    between atoms: _232  and  _233
REMARK   94  A    between atoms: _232  and  _235
REMARK   95  A    between atoms: _235  and  _236
REMARK   96  A    between atoms: _238  and  _240
REMARK   97  A    between atoms: _240  and  _241
REMARK   98  A    between atoms: _240  and  _243
REMARK   99  A    between atoms: _243  and  _244
REMARK  100  A    between atoms: _246  and  _248
REMARK  101  A    between atoms: _248  and  _249
REMARK  102  A    between atoms: _248  and  _251
REMARK  103  A    between atoms: _251  and  _252
REMARK  104  A    between atoms: _252  and  _253
REMARK  105  A    between atoms: _258  and  _260
REMARK  106  A    between atoms: _260  and  _261
REMARK  107  A    between atoms: _260  and  _263
REMARK  108  A    between atoms: _263  and  _264
REMARK  109  A    between atoms: _270  and  _272
REMARK  110  A    between atoms: _272  and  _273
REMARK  111  A    between atoms: _272  and  _275
REMARK  112  A    between atoms: _275  and  _276
REMARK  113  A    between atoms: _279  and  _281
REMARK  114  A    between atoms: _281  and  _282
REMARK  115  A    between atoms: _281  and  _284
REMARK  116  A    between atoms: _284  and  _285
REMARK  117  A    between atoms: _288  and  _290
REMARK  118  A    between atoms: _290  and  _291
REMARK  119  A    between atoms: _294  and  _296
REMARK  120  A    between atoms: _296  and  _297
REMARK  121  A    between atoms: _296  and  _299
REMARK  122  A    between atoms: _299  and  _300
REMARK  123  A    between atoms: _303  and  _305
REMARK  124  A    between atoms: _305  and  _306
REMARK  125  A    between atoms: _305  and  _308
REMARK  126  A    between atoms: _311  and  _313
REMARK  127  A    between atoms: _313  and  _314
REMARK  128  A    between atoms: _313  and  _316
REMARK  129  A    between atoms: _316  and  _317
REMARK  130  A    between atoms: _319  and  _321
REMARK  131  A    between atoms: _321  and  _322
REMARK  132  A    between atoms: _321  and  _324
REMARK  133  A    between atoms: _324  and  _325
REMARK  134  A    between atoms: _325  and  _326
REMARK  135  A    between atoms: _326  and  _327
REMARK  136  A    between atoms: _327  and  _328
REMARK  137  A    between atoms: _333  and  _334
REMARK  138  A    between atoms: _339  and  _341
REMARK  139  A    between atoms: _341  and  _342
REMARK  140  A    between atoms: _341  and  _344
REMARK  141  A    between atoms: _344  and  _345
REMARK  142  A    between atoms: _350  and  _351
REMARK  143  A    between atoms: _353  and  _355
REMARK  144  A    between atoms: _355  and  _356
REMARK  145  A    between atoms: _355  and  _358
REMARK  146  A    between atoms: _358  and  _359
REMARK  147  A    between atoms: _362  and  _364
REMARK  148  A    between atoms: _364  and  _365
REMARK  149  A    between atoms: _364  and  _367
REMARK  150  A    between atoms: _367  and  _368
REMARK  151  A    between atoms: _371  and  _373
REMARK  152  A    between atoms: _373  and  _374
REMARK  153  A    between atoms: _373  and  _376
REMARK  154  A    between atoms: _376  and  _377
REMARK  155  A    between atoms: _380  and  _382
REMARK  156  A    between atoms: _382  and  _383
REMARK  157  A    between atoms: _382  and  _385
REMARK  158  A    between atoms: _385  and  _386
REMARK  159  A    between atoms: _389  and  _391
REMARK  160  A    between atoms: _391  and  _392
REMARK  161  A    between atoms: _391  and  _394
REMARK  162  A    between atoms: _394  and  _395
REMARK  163  A    between atoms: _397  and  _399
REMARK  164  A    between atoms: _399  and  _400
REMARK  165  A    between atoms: _399  and  _402
REMARK  166  A    between atoms: _402  and  _403
REMARK  167  A    between atoms: _408  and  _409
REMARK  168  A    between atoms: _411  and  _413
REMARK  169  A    between atoms: _413  and  _414
REMARK  170  A    between atoms: _413  and  _416
REMARK  171  A    between atoms: _416  and  _417
REMARK  172  A    between atoms: _420  and  _422
REMARK  173  A    between atoms: _422  and  _423
REMARK  174  A    between atoms: _422  and  _425
REMARK  175  A    between atoms: _425  and  _426
REMARK  176  A    between atoms: _431  and  _433
REMARK  177  A    between atoms: _433  and  _434
REMARK  178  A    between atoms: _433  and  _436
REMARK  179  A    between atoms: _436  and  _437
REMARK  180  A    between atoms: _441  and  _442
REMARK  181  A    between atoms: _447  and  _449
REMARK  182  A    between atoms: _449  and  _450
REMARK  183  A    between atoms: _449  and  _452
REMARK  184  A    between atoms: _452  and  _453
REMARK  185  A    between atoms: _456  and  _458
REMARK  186  A    between atoms: _458  and  _459
REMARK  187  A    between atoms: _462  and  _464
REMARK  188  A    between atoms: _464  and  _465
REMARK  189  A    between atoms: _464  and  _467
REMARK  190  A    between atoms: _467  and  _468
REMARK  191  A    between atoms: _468  and  _469
REMARK  192  A    between atoms: _471  and  _473
REMARK  193  A    between atoms: _473  and  _474
REMARK  194  A    between atoms: _473  and  _476
REMARK  195  A    between atoms: _476  and  _477
REMARK  196  A    between atoms: _482  and  _484
REMARK  197  A    between atoms: _484  and  _485
REMARK  198  A    between atoms: _484  and  _487
REMARK  199  A    between atoms: _487  and  _488
REMARK  200  A    between atoms: _498  and  _500
REMARK  201  A    between atoms: _500  and  _501
REMARK  202  A    between atoms: _500  and  _503
REMARK  203  A    between atoms: _506  and  _508
REMARK  204  A    between atoms: _508  and  _509
REMARK  205  A    between atoms: _508  and  _511
REMARK  206  A    between atoms: _511  and  _512
REMARK  207  A    between atoms: _512  and  _513
REMARK  208  A    between atoms: _513  and  _514
REMARK  209  A    between atoms: _514  and  _515
REMARK  210  A    between atoms: _519  and  _521
REMARK  211  A    between atoms: _521  and  _522
REMARK  212  A    between atoms: _521  and  _524
REMARK  213  A    between atoms: _524  and  _525
REMARK  214  A    between atoms: _525  and  _526
REMARK  215  A    between atoms: _529  and  _531
REMARK  216  A    between atoms: _531  and  _532
REMARK  217  A    between atoms: _531  and  _534
REMARK  218  A    between atoms: _534  and  _535
REMARK  219  A    between atoms: _538  and  _540
REMARK  220  A    between atoms: _540  and  _541
REMARK  221  A    between atoms: _540  and  _543
REMARK  222  A    between atoms: _543  and  _544
REMARK  223  A    between atoms: _544  and  _545
REMARK  224  A    between atoms: _545  and  _546
REMARK  225  A    between atoms: _555  and  _557
REMARK  226  A    between atoms: _557  and  _558
REMARK  227  A    between atoms: _557  and  _560
REMARK  228  A    between atoms: _560  and  _561
REMARK  229  A    between atoms: _564  and  _566
REMARK  230  A    between atoms: _566  and  _567
REMARK  231  A    between atoms: _566  and  _569
REMARK  232  A    between atoms: _569  and  _570
REMARK  233  A    between atoms: _575  and  _577
REMARK  234  A    between atoms: _577  and  _578
REMARK  235  A    between atoms: _577  and  _580
REMARK  236  A    between atoms: _580  and  _581
REMARK  237  A    between atoms: _581  and  _582
REMARK  238  A    between atoms: _582  and  _583
REMARK  239  A    between atoms: _592  and  _594
REMARK  240  A    between atoms: _594  and  _595
REMARK  241  A    between atoms: _594  and  _597
REMARK  242  A    between atoms: _597  and  _598
REMARK  243  A    between atoms: _598  and  _599
REMARK  244  A    between atoms: _601  and  _603
REMARK  245  A    between atoms: _603  and  _604
REMARK  246  A    between atoms: _603  and  _606
REMARK  247  A    between atoms: _606  and  _607
REMARK  248  A    between atoms: _607  and  _608
REMARK  249  A    between atoms: _610  and  _612
REMARK  250  A    between atoms: _612  and  _613
REMARK  251  A    between atoms: _612  and  _615
REMARK  252  A    between atoms: _615  and  _616
REMARK  253  A    between atoms: _616  and  _617
REMARK  254  A    between atoms: _617  and  _618
REMARK  255  A    between atoms: _618  and  _619
REMARK  256  A    between atoms: _623  and  _625
REMARK  257  A    between atoms: _625  and  _626
REMARK  258  A    between atoms: _625  and  _628
REMARK  259  A    between atoms: _628  and  _629
REMARK                            x       y       z     vdW  Elec       q    Type
REMARK                         _______ _______ _______ _____ _____    ______ ____
ROOT
ATOM      1  CA  THR A   6      60.489  13.192  22.872  0.00  0.00    +0.176 C 
ENDROOT
BRANCH   1   2
ATOM      2  C   THR A   6      61.133  13.744  21.596  0.00  0.00    +0.243 C 
ATOM      3  O   THR A   6      60.758  14.825  21.137  0.00  0.00    -0.273 OA
ATOM      4  N   ALA A   7      62.118  13.020  21.038  0.00  0.00    -0.297 N 
ATOM      5  H   ALA A   7      62.490  12.183  21.531  0.00  0.00    +0.150 HD
BRANCH   4   6
ATOM      6  CA  ALA A   7      62.668  13.406  19.739  0.00  0.00    +0.149 C 
ATOM      7  CB  ALA A   7      64.194  13.353  19.743  0.00  0.00    +0.031 C 
BRANCH   6   8
ATOM      8  C   ALA A   7      62.105  12.388  18.728  0.00  0.00    +0.241 C 
ATOM      9  N   MET A   8      62.211  11.100  19.056  0.00  0.00    -0.297 N 
ATOM     10  H   MET A   8      62.632  10.841  19.971  0.00  0.00    +0.150 HD
ATOM     11  O   ALA A   7      61.533  12.757  17.687  0.00  0.00    -0.273 OA
BRANCH   9  12
ATOM     12  CA  MET A   8      61.746  10.040  18.154  0.00  0.00    +0.149 C 
BRANCH  12  13
ATOM     13  C   MET A   8      60.281  10.097  17.751  0.00  0.00    +0.241 C 
ATOM     14  N   ARG A   9      59.376  10.207  18.725  0.00  0.00    -0.297 N 
ATOM     15  H   ARG A   9      59.672  10.285  19.719  0.00  0.00    +0.150 HD
ATOM     16  O   MET A   8      59.964  10.037  16.553  0.00  0.00    -0.273 OA
BRANCH  14  17
ATOM     17  CA  ARG A   9      57.959  10.216  18.366  0.00  0.00    +0.149 C 
BRANCH  17  18
ATOM     18  C   ARG A   9      57.583  11.530  17.655  0.00  0.00    +0.244 C 
ATOM     19  N   PRO A  10      57.914  12.699  18.246  0.00  0.00    -0.273 N 
ATOM     20  CD  PRO A  10      58.419  12.989  19.600  0.00  0.00    +0.094 C 
ATOM     21  CG  PRO A  10      57.834  14.369  19.864  0.00  0.00    +0.024 C 
ATOM     22  CB  PRO A  10      58.000  15.036  18.516  0.00  0.00    +0.030 C 
ATOM     23  CA  PRO A  10      57.544  13.945  17.547  0.00  0.00    +0.140 C 
ATOM     24  O   ARG A   9      57.046  11.502  16.550  0.00  0.00    -0.273 OA
BRANCH  23  25
ATOM     25  C   PRO A  10      58.146  14.111  16.150  0.00  0.00    +0.227 C 
ATOM     26  O   PRO A  10      57.442  14.549  15.224  0.00  0.00    -0.286 OA
ENDBRANCH  23  25
ENDBRANCH  17  18
BRANCH  17  27
ATOM     27  CB  ARG A   9      57.074   9.952  19.602  0.00  0.00    +0.033 C 
BRANCH  27  28
ATOM     28  CG  ARG A   9      56.930   8.454  20.005  0.00  0.00    +0.045 C 
BRANCH  28  29
ATOM     29  CD  ARG A   9      58.268   7.799  20.435  0.00  0.00    +0.174 C 
BRANCH  29  30
ATOM     30  NE  ARG A   9      58.102   6.418  20.928  0.00  0.00    -0.265 N 
ATOM     31  CZ  ARG A   9      57.769   6.091  22.180  0.00  0.00    +0.342 C 
ATOM     32  NH2 ARG A   9      57.592   7.033  23.105  0.00  0.00    -0.292 N 
ATOM     33 HH21 ARG A   9      57.333   6.766  24.076  0.00  0.00    +0.255 HD
ATOM     34 HH22 ARG A   9      57.713   8.035  22.856  0.00  0.00    +0.255 HD
ATOM     35  NH1 ARG A   9      57.642   4.819  22.534  0.00  0.00    -0.292 N 
ATOM     36 HH11 ARG A   9      57.382   4.575  23.511  0.00  0.00    +0.255 HD
ATOM     37 HH12 ARG A   9      57.802   4.066  21.835  0.00  0.00    +0.255 HD
ATOM     38  HE  ARG A   9      58.255   5.643  20.252  0.00  0.00    +0.259 HD
ENDBRANCH  29  30
ENDBRANCH  28  29
ENDBRANCH  27  28
ENDBRANCH  17  27
ENDBRANCH  14  17
ENDBRANCH  12  13
BRANCH  12  39
ATOM     39  CB  MET A   8      62.047   8.658  18.752  0.00  0.00    +0.041 C 
BRANCH  39  40
ATOM     40  CG  MET A   8      61.640   7.445  17.858  0.00  0.00    +0.060 C 
BRANCH  40  41
ATOM     41  SD  MET A   8      62.412   7.343  16.177  0.00  0.00    -0.139 S 
ATOM     42  CE  MET A   8      64.042   6.811  16.628  0.00  0.00    +0.069 C 
ENDBRANCH  40  41
ENDBRANCH  39  40
ENDBRANCH  12  39
ENDBRANCH   9  12
ENDBRANCH   6   8
ENDBRANCH   4   6
ENDBRANCH   1   2
BRANCH   1  44
ATOM     43  C   GLY A   5      60.624  10.788  22.577  0.00  0.00    +0.243 C 
ATOM     44  N   THR A   6      60.989  11.881  23.251  0.00  0.00    -0.295 N 
ATOM     45  H   THR A   6      61.640  11.793  24.058  0.00  0.00    +0.150 HD
ATOM     46  O   GLY A   5      59.887  10.825  21.571  0.00  0.00    -0.273 OA
BRANCH  43  47
ATOM     47  CA  GLY A   5      61.197   9.466  23.066  0.00  0.00    +0.176 C 
BRANCH  47  49
ATOM     48  C   ALA A   4      63.544  10.047  22.765  0.00  0.00    +0.241 C 
ATOM     49  N   GLY A   5      62.549   9.661  23.572  0.00  0.00    -0.295 N 
ATOM     50  H   GLY A   5      62.745   9.497  24.580  0.00  0.00    +0.150 HD
ATOM     51  O   ALA A   4      63.404  10.238  21.557  0.00  0.00    -0.273 OA
BRANCH  48  52
ATOM     52  CA  ALA A   4      64.887  10.279  23.419  0.00  0.00    +0.149 C 
ATOM     53  CB  ALA A   4      65.431  11.644  22.991  0.00  0.00    +0.031 C 
BRANCH  52  56
ATOM     54  C   ASN A   3      65.984   8.198  24.050  0.00  0.00    +0.241 C 
ATOM     55  O   ASN A   3      65.111   7.952  24.877  0.00  0.00    -0.273 OA
ATOM     56  N   ALA A   4      65.938   9.256  23.241  0.00  0.00    -0.297 N 
ATOM     57  H   ALA A   4      66.643   9.362  22.484  0.00  0.00    +0.150 HD
BRANCH  54  58
ATOM     58  CA  ASN A   3      67.166   7.237  23.897  0.00  0.00    +0.158 C 
BRANCH  58  60
ATOM     59  C   GLY A   2      68.608   7.475  21.944  0.00  0.00    +0.243 C 
ATOM     60  N   ASN A   3      68.249   7.879  23.159  0.00  0.00    -0.297 N 
ATOM     61  H   ASN A   3      68.755   8.676  23.596  0.00  0.00    +0.150 HD
ATOM     62  O   GLY A   2      68.100   6.515  21.381  0.00  0.00    -0.273 OA
BRANCH  59  63
ATOM     63  CA  GLY A   2      69.735   8.252  21.292  0.00  0.00    +0.176 C 
BRANCH  63  66
ATOM     64  C   LEU A   1      68.355   9.598  19.814  0.00  0.00    +0.238 C 
ATOM     65  O   LEU A   1      67.603   9.939  20.736  0.00  0.00    -0.274 OA
ATOM     66  N   GLY A   2      69.414   8.813  19.985  0.00  0.00    -0.296 N 
ATOM     67  H   GLY A   2      70.025   8.595  19.172  0.00  0.00    +0.150 HD
BRANCH  64  68
ATOM     68  CA  LEU A   1      68.142  10.132  18.404  0.00  0.00    +0.145 C 
BRANCH  68  69
ATOM     69  N   LEU A   1      68.854   9.466  17.321  0.00  0.00    -0.238 NA
ATOM     70  H   LEU A   1      68.545   8.525  17.004  0.00  0.00    +0.142 HD
ENDBRANCH  68  69
BRANCH  68  71
ATOM     71  CB  LEU A   1      66.652  10.153  18.043  0.00  0.00    +0.026 C 
BRANCH  71  72
ATOM     72  CG  LEU A   1      66.321  10.750  16.659  0.00  0.00    +0.002 C 
ATOM     73  CD2 LEU A   1      66.799  12.184  16.507  0.00  0.00    +0.000 C 
ATOM     74  CD1 LEU A   1      64.801  10.702  16.464  0.00  0.00    +0.000 C 
ENDBRANCH  71  72
ENDBRANCH  68  71
ENDBRANCH  64  68
ENDBRANCH  63  66
ENDBRANCH  59  63
ENDBRANCH  58  60
BRANCH  58  75
ATOM     75  CB  ASN A   3      67.635   6.867  25.310  0.00  0.00    +0.114 C 
BRANCH  75  76
ATOM     76  CG  ASN A   3      68.750   5.835  25.311  0.00  0.00    +0.222 C 
ATOM     77  ND2 ASN A   3      69.945   6.265  25.681  0.00  0.00    -0.329 N 
ATOM     78 HD21 ASN A   3      70.079   7.261  25.949  0.00  0.00    +0.145 HD
ATOM     79 HD22 ASN A   3      70.750   5.607  25.704  0.00  0.00    +0.145 HD
ATOM     80  OD1 ASN A   3      68.537   4.671  24.985  0.00  0.00    -0.275 OA
ENDBRANCH  75  76
ENDBRANCH  58  75
ENDBRANCH  54  58
ENDBRANCH  52  56
ENDBRANCH  48  52
ENDBRANCH  47  49
ENDBRANCH  43  47
ENDBRANCH   1  44
BRANCH   1  81
ATOM     81  CB  THR A   6      60.601  14.240  24.023  0.00  0.00    +0.137 C 
ATOM     82  CG2 THR A   6      59.747  13.809  25.207  0.00  0.00    +0.034 C 
BRANCH  81  83
ATOM     83  OG1 THR A   6      61.958  14.385  24.440  0.00  0.00    -0.382 OA
ATOM     84  HG1 THR A   6      62.297  13.513  24.765  0.00  0.00    +0.210 HD
ENDBRANCH  81  83
ENDBRANCH   1  81
TORSDOF 32
REMARK  Name = ../refined-set-2016/2pq9/2pq9_pocket.pdb
REMARK  259 active torsions:
REMARK  status: ('A' for Active; 'I' for Inactive)
REMARK    1  A    between atoms: _1  and  _3
REMARK    2  A    between atoms: _3  and  _4
REMARK    3  A    between atoms: _3  and  _6
REMARK    4  A    between atoms: _6  and  _7
REMARK    5  A    between atoms: _9  and  _11
REMARK    6  A    between atoms: _11  and  _12
REMARK    7  A    between atoms: _11  and  _14
REMARK    8  A    between atoms: _14  and  _15
REMARK    9  A    between atoms: _15  and  _16
REMARK   10  A    between atoms: _16  and  _17
REMARK   11  A    between atoms: _17  and  _18
REMARK   12  A    between atoms: _22  and  _24
REMARK   13  A    between atoms: _24  and  _25
REMARK   14  A    between atoms: _24  and  _27
REMARK   15  A    between atoms: _27  and  _28
REMARK   16  A    between atoms: _30  and  _32
REMARK   17  A    between atoms: _32  and  _33
REMARK   18  A    between atoms: _32  and  _35
REMARK   19  A    between atoms: _38  and  _40
REMARK   20  A    between atoms: _40  and  _41
REMARK   21  A    between atoms: _40  and  _43
REMARK   22  A    between atoms: _43  and  _44
REMARK   23  A    between atoms: _46  and  _48
REMARK   24  A    between atoms: _48  and  _49
REMARK   25  A    between atoms: _48  and  _51
REMARK   26  A    between atoms: _51  and  _52
REMARK   27  A    between atoms: _57  and  _59
REMARK   28  A    between atoms: _59  and  _60
REMARK   29  A    between atoms: _59  and  _62
REMARK   30  A    between atoms: _62  and  _63
REMARK   31  A    between atoms: _63  and  _64
REMARK   32  A    between atoms: _64  and  _65
REMARK   33  A    between atoms: _74  and  _76
REMARK   34  A    between atoms: _76  and  _77
REMARK   35  A    between atoms: _76  and  _79
REMARK   36  A    between atoms: _79  and  _80
REMARK   37  A    between atoms: _83  and  _85
REMARK   38  A    between atoms: _85  and  _86
REMARK   39  A    between atoms: _85  and  _88
REMARK   40  A    between atoms: _88  and  _89
REMARK   41  A    between atoms: _92  and  _94
REMARK   42  A    between atoms: _94  and  _95
REMARK   43  A    between atoms: _97  and  _99
REMARK   44  A    between atoms: _99  and  _100
REMARK   45  A    between atoms: _99  and  _102
REMARK   46  A    between atoms: _102  and  _103
REMARK   47  A    between atoms: _108  and  _110
REMARK   48  A    between atoms: _110  and  _111
REMARK   49  A    between atoms: _114  and  _116
REMARK   50  A    between atoms: _116  and  _117
REMARK   51  A    between atoms: _119  and  _121
REMARK   52  A    between atoms: _121  and  _122
REMARK   53  A    between atoms: _121  and  _124
REMARK   54  A    between atoms: _124  and  _125
REMARK   55  A    between atoms: _128  and  _130
REMARK   56  A    between atoms: _130  and  _131
REMARK   57  A    between atoms: _134  and  _136
REMARK   58  A    between atoms: _136  and  _137
REMARK   59  A    between atoms: _136  and  _139
REMARK   60  A    between atoms: _139  and  _140
REMARK   61  A    between atoms: _140  and  _141
REMARK   62  A    between atoms: _143  and  _145
REMARK   63  A    between atoms: _145  and  _146
REMARK   64  A    between atoms: _145  and  _148
REMARK   65  A    between atoms: _148  and  _149
REMARK   66  A    between atoms: _149  and  _150
REMARK   67  A    between atoms: _150  and  _151
REMARK   68  A    between atoms: _161  and  _162
REMARK   69  A    between atoms: _167  and  _169
REMARK   70  A    between atoms: _169  and  _170
REMARK   71  A    between atoms: _169  and  _172
REMARK   72  A    between atoms: _172  and  _173
REMARK   73  A    between atoms: _173  and  _174
REMARK   74  A    between atoms: _174  and  _175
REMARK   75  A    between atoms: _184  and  _186
REMARK   76  A    between atoms: _186  and  _187
REMARK   77  A    between atoms: _186  and  _189
REMARK   78  A    between atoms: _189  and  _190
REMARK   79  A    between atoms: _190  and  _191
REMARK   80  A    between atoms: _193  and  _195
REMARK   81  A    between atoms: _195  and  _196
REMARK   82  A    between atoms: _195  and  _198
REMARK   83  A    between atoms: _198  and  _199
REMARK   84  A    between atoms: _199  and  _200
REMARK   85  A    between atoms: _200  and  _201
REMARK   86  A    between atoms: _211  and  _212
REMARK   87  A    between atoms: _217  and  _219
REMARK   88  A    between atoms: _219  and  _220
REMARK   89  A    between atoms: _222  and  _224
REMARK   90  A    between atoms: _224  and  _225
REMARK   91  A    between atoms: _224  and  _227
REMARK   92  A    between atoms: _230  and  _232
REMARK   93  A    between atoms: _232  and  _233
REMARK   94  A    between atoms: _232  and  _235
REMARK   95  A    between atoms: _235  and  _236
REMARK   96  A    between atoms: _238  and  _240
REMARK   97  A    between atoms: _240  and  _241
REMARK   98  A    between atoms: _240  and  _243
REMARK   99  A    between atoms: _243  and  _244
REMARK  100  A    between atoms: _246  and  _248
REMARK  101  A    between atoms: _248  and  _249
REMARK  102  A    between atoms: _248  and  _251
REMARK  103  A    between atoms: _251  and  _252
REMARK  104  A    between atoms: _252  and  _253
REMARK  105  A    between atoms: _258  and  _260
REMARK  106  A    between atoms: _260  and  _261
REMARK  107  A    between atoms: _260  and  _263
REMARK  108  A    between atoms: _263  and  _264
REMARK  109  A    between atoms: _270  and  _272
REMARK  110  A    between atoms: _272  and  _273
REMARK  111  A    between atoms: _272  and  _275
REMARK  112  A    between atoms: _275  and  _276
REMARK  113  A    between atoms: _279  and  _281
REMARK  114  A    between atoms: _281  and  _282
REMARK  115  A    between atoms: _281  and  _284
REMARK  116  A    between atoms: _284  and  _285
REMARK  117  A    between atoms: _288  and  _290
REMARK  118  A    between atoms: _290  and  _291
REMARK  119  A    between atoms: _294  and  _296
REMARK  120  A    between atoms: _296  and  _297
REMARK  121  A    between atoms: _296  and  _299
REMARK  122  A    between atoms: _299  and  _300
REMARK  123  A    between atoms: _303  and  _305
REMARK  124  A    between atoms: _305  and  _306
REMARK  125  A    between atoms: _305  and  _308
REMARK  126  A    between atoms: _311  and  _313
REMARK  127  A    between atoms: _313  and  _314
REMARK  128  A    between atoms: _313  and  _316
REMARK  129  A    between atoms: _316  and  _317
REMARK  130  A    between atoms: _319  and  _321
REMARK  131  A    between atoms: _321  and  _322
REMARK  132  A    between atoms: _321  and  _324
REMARK  133  A    between atoms: _324  and  _325
REMARK  134  A    between atoms: _325  and  _326
REMARK  135  A    between atoms: _326  and  _327
REMARK  136  A    between atoms: _327  and  _328
REMARK  137  A    between atoms: _333  and  _334
REMARK  138  A    between atoms: _339  and  _341
REMARK  139  A    between atoms: _341  and  _342
REMARK  140  A    between atoms: _341  and  _344
REMARK  141  A    between atoms: _344  and  _345
REMARK  142  A    between atoms: _350  and  _351
REMARK  143  A    between atoms: _353  and  _355
REMARK  144  A    between atoms: _355  and  _356
REMARK  145  A    between atoms: _355  and  _358
REMARK  146  A    between atoms: _358  and  _359
REMARK  147  A    between atoms: _362  and  _364
REMARK  148  A    between atoms: _364  and  _365
REMARK  149  A    between atoms: _364  and  _367
REMARK  150  A    between atoms: _367  and  _368
REMARK  151  A    between atoms: _371  and  _373
REMARK  152  A    between atoms: _373  and  _374
REMARK  153  A    between atoms: _373  and  _376
REMARK  154  A    between atoms: _376  and  _377
REMARK  155  A    between atoms: _380  and  _382
REMARK  156  A    between atoms: _382  and  _383
REMARK  157  A    between atoms: _382  and  _385
REMARK  158  A    between atoms: _385  and  _386
REMARK  159  A    between atoms: _389  and  _391
REMARK  160  A    between atoms: _391  and  _392
REMARK  161  A    between atoms: _391  and  _394
REMARK  162  A    between atoms: _394  and  _395
REMARK  163  A    between atoms: _397  and  _399
REMARK  164  A    between atoms: _399  and  _400
REMARK  165  A    between atoms: _399  and  _402
REMARK  166  A    between atoms: _402  and  _403
REMARK  167  A    between atoms: _408  and  _409
REMARK  168  A    between atoms: _411  and  _413
REMARK  169  A    between atoms: _413  and  _414
REMARK  170  A    between atoms: _413  and  _416
REMARK  171  A    between atoms: _416  and  _417
REMARK  172  A    between atoms: _420  and  _422
REMARK  173  A    between atoms: _422  and  _423
REMARK  174  A    between atoms: _422  and  _425
REMARK  175  A    between atoms: _425  and  _426
REMARK  176  A    between atoms: _431  and  _433
REMARK  177  A    between atoms: _433  and  _434
REMARK  178  A    between atoms: _433  and  _436
REMARK  179  A    between atoms: _436  and  _437
REMARK  180  A    between atoms: _441  and  _442
REMARK  181  A    between atoms: _447  and  _449
REMARK  182  A    between atoms: _449  and  _450
REMARK  183  A    between atoms: _449  and  _452
REMARK  184  A    between atoms: _452  and  _453
REMARK  185  A    between atoms: _456  and  _458
REMARK  186  A    between atoms: _458  and  _459
REMARK  187  A    between atoms: _462  and  _464
REMARK  188  A    between atoms: _464  and  _465
REMARK  189  A    between atoms: _464  and  _467
REMARK  190  A    between atoms: _467  and  _468
REMARK  191  A    between atoms: _468  and  _469
REMARK  192  A    between atoms: _471  and  _473
REMARK  193  A    between atoms: _473  and  _474
REMARK  194  A    between atoms: _473  and  _476
REMARK  195  A    between atoms: _476  and  _477
REMARK  196  A    between atoms: _482  and  _484
REMARK  197  A    between atoms: _484  and  _485
REMARK  198  A    between atoms: _484  and  _487
REMARK  199  A    between atoms: _487  and  _488
REMARK  200  A    between atoms: _498  and  _500
REMARK  201  A    between atoms: _500  and  _501
REMARK  202  A    between atoms: _500  and  _503
REMARK  203  A    between atoms: _506  and  _508
REMARK  204  A    between atoms: _508  and  _509
REMARK  205  A    between atoms: _508  and  _511
REMARK  206  A    between atoms: _511  and  _512
REMARK  207  A    between atoms: _512  and  _513
REMARK  208  A    between atoms: _513  and  _514
REMARK  209  A    between atoms: _514  and  _515
REMARK  210  A    between atoms: _519  and  _521
REMARK  211  A    between atoms: _521  and  _522
REMARK  212  A    between atoms: _521  and  _524
REMARK  213  A    between atoms: _524  and  _525
REMARK  214  A    between atoms: _525  and  _526
REMARK  215  A    between atoms: _529  and  _531
REMARK  216  A    between atoms: _531  and  _532
REMARK  217  A    between atoms: _531  and  _534
REMARK  218  A    between atoms: _534  and  _535
REMARK  219  A    between atoms: _538  and  _540
REMARK  220  A    between atoms: _540  and  _541
REMARK  221  A    between atoms: _540  and  _543
REMARK  222  A    between atoms: _543  and  _544
REMARK  223  A    between atoms: _544  and  _545
REMARK  224  A    between atoms: _545  and  _546
REMARK  225  A    between atoms: _555  and  _557
REMARK  226  A    between atoms: _557  and  _558
REMARK  227  A    between atoms: _557  and  _560
REMARK  228  A    between atoms: _560  and  _561
REMARK  229  A    between atoms: _564  and  _566
REMARK  230  A    between atoms: _566  and  _567
REMARK  231  A    between atoms: _566  and  _569
REMARK  232  A    between atoms: _569  and  _570
REMARK  233  A    between atoms: _575  and  _577
REMARK  234  A    between atoms: _577  and  _578
REMARK  235  A    between atoms: _577  and  _580
REMARK  236  A    between atoms: _580  and  _581
REMARK  237  A    between atoms: _581  and  _582
REMARK  238  A    between atoms: _582  and  _583
REMARK  239  A    between atoms: _592  and  _594
REMARK  240  A    between atoms: _594  and  _595
REMARK  241  A    between atoms: _594  and  _597
REMARK  242  A    between atoms: _597  and  _598
REMARK  243  A    between atoms: _598  and  _599
REMARK  244  A    between atoms: _601  and  _603
REMARK  245  A    between atoms: _603  and  _604
REMARK  246  A    between atoms: _603  and  _606
REMARK  247  A    between atoms: _606  and  _607
REMARK  248  A    between atoms: _607  and  _608
REMARK  249  A    between atoms: _610  and  _612
REMARK  250  A    between atoms: _612  and  _613
REMARK  251  A    between atoms: _612  and  _615
REMARK  252  A    between atoms: _615  and  _616
REMARK  253  A    between atoms: _616  and  _617
REMARK  254  A    between atoms: _617  and  _618
REMARK  255  A    between atoms: _618  and  _619
REMARK  256  A    between atoms: _623  and  _625
REMARK  257  A    between atoms: _625  and  _626
REMARK  258  A    between atoms: _625  and  _628
REMARK  259  A    between atoms: _628  and  _629
REMARK                            x       y       z     vdW  Elec       q    Type
REMARK                         _______ _______ _______ _____ _____    ______ ____
ROOT
ATOM      1  CA  ARG A   1      66.807   0.211  23.590  0.00  0.00    +0.145 C 
ENDROOT
BRANCH   1   2
ATOM      2  C   ARG A   1      65.710   0.936  22.833  0.00  0.00    +0.238 C 
ATOM      3  O   ARG A   1      64.544   0.538  22.896  0.00  0.00    -0.274 OA
ATOM      4  N   MET A   2      66.057   1.997  22.120  0.00  0.00    -0.298 N 
ATOM      5  H   MET A   2      67.048   2.309  22.083  0.00  0.00    +0.150 HD
BRANCH   4   6
ATOM      6  CA  MET A   2      65.016   2.724  21.382  0.00  0.00    +0.138 C 
BRANCH   6   7
ATOM      7  C   MET A   2      64.387   1.820  20.314  0.00  0.00    +0.227 C 
ATOM      8  O   MET A   2      63.203   1.965  19.987  0.00  0.00    -0.286 OA
ENDBRANCH   6   7
BRANCH   6   9
ATOM      9  CB  MET A   2      65.592   4.005  20.749  0.00  0.00    +0.039 C 
BRANCH   9  10
ATOM     10  CG  MET A   2      64.579   4.818  19.913  0.00  0.00    +0.060 C 
BRANCH  10  11
ATOM     11  SD  MET A   2      63.099   5.310  20.821  0.00  0.00    -0.139 S 
ATOM     12  CE  MET A   2      63.737   6.553  21.977  0.00  0.00    +0.069 C 
ENDBRANCH  10  11
ENDBRANCH   9  10
ENDBRANCH   6   9
ENDBRANCH   4   6
ENDBRANCH   1   2
BRANCH   1  13
ATOM     13  N   ARG A   1      68.084   0.233  22.880  0.00  0.00    -0.238 NA
ATOM     14  H   ARG A   1      68.911   0.712  23.291  0.00  0.00    +0.142 HD
ENDBRANCH   1  13
BRANCH   1  15
ATOM     15  CB  ARG A   1      66.937   0.799  25.011  0.00  0.00    +0.030 C 
BRANCH  15  16
ATOM     16  CG  ARG A   1      65.602   0.809  25.790  0.00  0.00    +0.045 C 
BRANCH  16  17
ATOM     17  CD  ARG A   1      65.046  -0.583  26.015  0.00  0.00    +0.174 C 
BRANCH  17  18
ATOM     18  NE  ARG A   1      63.716  -0.544  26.627  0.00  0.00    -0.265 N 
ATOM     19  HE  ARG A   1      63.366   0.374  26.967  0.00  0.00    +0.259 HD
ATOM     20  CZ  ARG A   1      62.926  -1.603  26.778  0.00  0.00    +0.342 C 
ATOM     21  NH2 ARG A   1      61.734  -1.454  27.335  0.00  0.00    -0.292 N 
ATOM     22 HH21 ARG A   1      61.421  -0.514  27.651  0.00  0.00    +0.255 HD
ATOM     23 HH22 ARG A   1      61.110  -2.277  27.457  0.00  0.00    +0.255 HD
ATOM     24  NH1 ARG A   1      63.321  -2.802  26.360  0.00  0.00    -0.292 N 
ATOM     25 HH11 ARG A   1      62.698  -3.626  26.481  0.00  0.00    +0.255 HD
ATOM     26 HH12 ARG A   1      64.253  -2.916  25.912  0.00  0.00    +0.255 HD
ENDBRANCH  17  18
ENDBRANCH  16  17
ENDBRANCH  15  16
ENDBRANCH   1  15
TORSDOF 11
REMARK  Name = ../refined-set-2016/2pq9/2pq9_pocket.pdb
REMARK  259 active torsions:
REMARK  status: ('A' for Active; 'I' for Inactive)
REMARK    1  A    between atoms: _1  and  _3
REMARK    2  A    between atoms: _3  and  _4
REMARK    3  A    between atoms: _3  and  _6
REMARK    4  A    between atoms: _6  and  _7
REMARK    5  A    between atoms: _9  and  _11
REMARK    6  A    between atoms: _11  and  _12
REMARK    7  A    between atoms: _11  and  _14
REMARK    8  A    between atoms: _14  and  _15
REMARK    9  A    between atoms: _15  and  _16
REMARK   10  A    between atoms: _16  and  _17
REMARK   11  A    between atoms: _17  and  _18
REMARK   12  A    between atoms: _22  and  _24
REMARK   13  A    between atoms: _24  and  _25
REMARK   14  A    between atoms: _24  and  _27
REMARK   15  A    between atoms: _27  and  _28
REMARK   16  A    between atoms: _30  and  _32
REMARK   17  A    between atoms: _32  and  _33
REMARK   18  A    between atoms: _32  and  _35
REMARK   19  A    between atoms: _38  and  _40
REMARK   20  A    between atoms: _40  and  _41
REMARK   21  A    between atoms: _40  and  _43
REMARK   22  A    between atoms: _43  and  _44
REMARK   23  A    between atoms: _46  and  _48
REMARK   24  A    between atoms: _48  and  _49
REMARK   25  A    between atoms: _48  and  _51
REMARK   26  A    between atoms: _51  and  _52
REMARK   27  A    between atoms: _57  and  _59
REMARK   28  A    between atoms: _59  and  _60
REMARK   29  A    between atoms: _59  and  _62
REMARK   30  A    between atoms: _62  and  _63
REMARK   31  A    between atoms: _63  and  _64
REMARK   32  A    between atoms: _64  and  _65
REMARK   33  A    between atoms: _74  and  _76
REMARK   34  A    between atoms: _76  and  _77
REMARK   35  A    between atoms: _76  and  _79
REMARK   36  A    between atoms: _79  and  _80
REMARK   37  A    between atoms: _83  and  _85
REMARK   38  A    between atoms: _85  and  _86
REMARK   39  A    between atoms: _85  and  _88
REMARK   40  A    between atoms: _88  and  _89
REMARK   41  A    between atoms: _92  and  _94
REMARK   42  A    between atoms: _94  and  _95
REMARK   43  A    between atoms: _97  and  _99
REMARK   44  A    between atoms: _99  and  _100
REMARK   45  A    between atoms: _99  and  _102
REMARK   46  A    between atoms: _102  and  _103
REMARK   47  A    between atoms: _108  and  _110
REMARK   48  A    between atoms: _110  and  _111
REMARK   49  A    between atoms: _114  and  _116
REMARK   50  A    between atoms: _116  and  _117
REMARK   51  A    between atoms: _119  and  _121
REMARK   52  A    between atoms: _121  and  _122
REMARK   53  A    between atoms: _121  and  _124
REMARK   54  A    between atoms: _124  and  _125
REMARK   55  A    between atoms: _128  and  _130
REMARK   56  A    between atoms: _130  and  _131
REMARK   57  A    between atoms: _134  and  _136
REMARK   58  A    between atoms: _136  and  _137
REMARK   59  A    between atoms: _136  and  _139
REMARK   60  A    between atoms: _139  and  _140
REMARK   61  A    between atoms: _140  and  _141
REMARK   62  A    between atoms: _143  and  _145
REMARK   63  A    between atoms: _145  and  _146
REMARK   64  A    between atoms: _145  and  _148
REMARK   65  A    between atoms: _148  and  _149
REMARK   66  A    between atoms: _149  and  _150
REMARK   67  A    between atoms: _150  and  _151
REMARK   68  A    between atoms: _161  and  _162
REMARK   69  A    between atoms: _167  and  _169
REMARK   70  A    between atoms: _169  and  _170
REMARK   71  A    between atoms: _169  and  _172
REMARK   72  A    between atoms: _172  and  _173
REMARK   73  A    between atoms: _173  and  _174
REMARK   74  A    between atoms: _174  and  _175
REMARK   75  A    between atoms: _184  and  _186
REMARK   76  A    between atoms: _186  and  _187
REMARK   77  A    between atoms: _186  and  _189
REMARK   78  A    between atoms: _189  and  _190
REMARK   79  A    between atoms: _190  and  _191
REMARK   80  A    between atoms: _193  and  _195
REMARK   81  A    between atoms: _195  and  _196
REMARK   82  A    between atoms: _195  and  _198
REMARK   83  A    between atoms: _198  and  _199
REMARK   84  A    between atoms: _199  and  _200
REMARK   85  A    between atoms: _200  and  _201
REMARK   86  A    between atoms: _211  and  _212
REMARK   87  A    between atoms: _217  and  _219
REMARK   88  A    between atoms: _219  and  _220
REMARK   89  A    between atoms: _222  and  _224
REMARK   90  A    between atoms: _224  and  _225
REMARK   91  A    between atoms: _224  and  _227
REMARK   92  A    between atoms: _230  and  _232
REMARK   93  A    between atoms: _232  and  _233
REMARK   94  A    between atoms: _232  and  _235
REMARK   95  A    between atoms: _235  and  _236
REMARK   96  A    between atoms: _238  and  _240
REMARK   97  A    between atoms: _240  and  _241
REMARK   98  A    between atoms: _240  and  _243
REMARK   99  A    between atoms: _243  and  _244
REMARK  100  A    between atoms: _246  and  _248
REMARK  101  A    between atoms: _248  and  _249
REMARK  102  A    between atoms: _248  and  _251
REMARK  103  A    between atoms: _251  and  _252
REMARK  104  A    between atoms: _252  and  _253
REMARK  105  A    between atoms: _258  and  _260
REMARK  106  A    between atoms: _260  and  _261
REMARK  107  A    between atoms: _260  and  _263
REMARK  108  A    between atoms: _263  and  _264
REMARK  109  A    between atoms: _270  and  _272
REMARK  110  A    between atoms: _272  and  _273
REMARK  111  A    between atoms: _272  and  _275
REMARK  112  A    between atoms: _275  and  _276
REMARK  113  A    between atoms: _279  and  _281
REMARK  114  A    between atoms: _281  and  _282
REMARK  115  A    between atoms: _281  and  _284
REMARK  116  A    between atoms: _284  and  _285
REMARK  117  A    between atoms: _288  and  _290
REMARK  118  A    between atoms: _290  and  _291
REMARK  119  A    between atoms: _294  and  _296
REMARK  120  A    between atoms: _296  and  _297
REMARK  121  A    between atoms: _296  and  _299
REMARK  122  A    between atoms: _299  and  _300
REMARK  123  A    between atoms: _303  and  _305
REMARK  124  A    between atoms: _305  and  _306
REMARK  125  A    between atoms: _305  and  _308
REMARK  126  A    between atoms: _311  and  _313
REMARK  127  A    between atoms: _313  and  _314
REMARK  128  A    between atoms: _313  and  _316
REMARK  129  A    between atoms: _316  and  _317
REMARK  130  A    between atoms: _319  and  _321
REMARK  131  A    between atoms: _321  and  _322
REMARK  132  A    between atoms: _321  and  _324
REMARK  133  A    between atoms: _324  and  _325
REMARK  134  A    between atoms: _325  and  _326
REMARK  135  A    between atoms: _326  and  _327
REMARK  136  A    between atoms: _327  and  _328
REMARK  137  A    between atoms: _333  and  _334
REMARK  138  A    between atoms: _339  and  _341
REMARK  139  A    between atoms: _341  and  _342
REMARK  140  A    between atoms: _341  and  _344
REMARK  141  A    between atoms: _344  and  _345
REMARK  142  A    between atoms: _350  and  _351
REMARK  143  A    between atoms: _353  and  _355
REMARK  144  A    between atoms: _355  and  _356
REMARK  145  A    between atoms: _355  and  _358
REMARK  146  A    between atoms: _358  and  _359
REMARK  147  A    between atoms: _362  and  _364
REMARK  148  A    between atoms: _364  and  _365
REMARK  149  A    between atoms: _364  and  _367
REMARK  150  A    between atoms: _367  and  _368
REMARK  151  A    between atoms: _371  and  _373
REMARK  152  A    between atoms: _373  and  _374
REMARK  153  A    between atoms: _373  and  _376
REMARK  154  A    between atoms: _376  and  _377
REMARK  155  A    between atoms: _380  and  _382
REMARK  156  A    between atoms: _382  and  _383
REMARK  157  A    between atoms: _382  and  _385
REMARK  158  A    between atoms: _385  and  _386
REMARK  159  A    between atoms: _389  and  _391
REMARK  160  A    between atoms: _391  and  _392
REMARK  161  A    between atoms: _391  and  _394
REMARK  162  A    between atoms: _394  and  _395
REMARK  163  A    between atoms: _397  and  _399
REMARK  164  A    between atoms: _399  and  _400
REMARK  165  A    between atoms: _399  and  _402
REMARK  166  A    between atoms: _402  and  _403
REMARK  167  A    between atoms: _408  and  _409
REMARK  168  A    between atoms: _411  and  _413
REMARK  169  A    between atoms: _413  and  _414
REMARK  170  A    between atoms: _413  and  _416
REMARK  171  A    between atoms: _416  and  _417
REMARK  172  A    between atoms: _420  and  _422
REMARK  173  A    between atoms: _422  and  _423
REMARK  174  A    between atoms: _422  and  _425
REMARK  175  A    between atoms: _425  and  _426
REMARK  176  A    between atoms: _431  and  _433
REMARK  177  A    between atoms: _433  and  _434
REMARK  178  A    between atoms: _433  and  _436
REMARK  179  A    between atoms: _436  and  _437
REMARK  180  A    between atoms: _441  and  _442
REMARK  181  A    between atoms: _447  and  _449
REMARK  182  A    between atoms: _449  and  _450
REMARK  183  A    between atoms: _449  and  _452
REMARK  184  A    between atoms: _452  and  _453
REMARK  185  A    between atoms: _456  and  _458
REMARK  186  A    between atoms: _458  and  _459
REMARK  187  A    between atoms: _462  and  _464
REMARK  188  A    between atoms: _464  and  _465
REMARK  189  A    between atoms: _464  and  _467
REMARK  190  A    between atoms: _467  and  _468
REMARK  191  A    between atoms: _468  and  _469
REMARK  192  A    between atoms: _471  and  _473
REMARK  193  A    between atoms: _473  and  _474
REMARK  194  A    between atoms: _473  and  _476
REMARK  195  A    between atoms: _476  and  _477
REMARK  196  A    between atoms: _482  and  _484
REMARK  197  A    between atoms: _484  and  _485
REMARK  198  A    between atoms: _484  and  _487
REMARK  199  A    between atoms: _487  and  _488
REMARK  200  A    between atoms: _498  and  _500
REMARK  201  A    between atoms: _500  and  _501
REMARK  202  A    between atoms: _500  and  _503
REMARK  203  A    between atoms: _506  and  _508
REMARK  204  A    between atoms: _508  and  _509
REMARK  205  A    between atoms: _508  and  _511
REMARK  206  A    between atoms: _511  and  _512
REMARK  207  A    between atoms: _512  and  _513
REMARK  208  A    between atoms: _513  and  _514
REMARK  209  A    between atoms: _514  and  _515
REMARK  210  A    between atoms: _519  and  _521
REMARK  211  A    between atoms: _521  and  _522
REMARK  212  A    between atoms: _521  and  _524
REMARK  213  A    between atoms: _524  and  _525
REMARK  214  A    between atoms: _525  and  _526
REMARK  215  A    between atoms: _529  and  _531
REMARK  216  A    between atoms: _531  and  _532
REMARK  217  A    between atoms: _531  and  _534
REMARK  218  A    between atoms: _534  and  _535
REMARK  219  A    between atoms: _538  and  _540
REMARK  220  A    between atoms: _540  and  _541
REMARK  221  A    between atoms: _540  and  _543
REMARK  222  A    between atoms: _543  and  _544
REMARK  223  A    between atoms: _544  and  _545
REMARK  224  A    between atoms: _545  and  _546
REMARK  225  A    between atoms: _555  and  _557
REMARK  226  A    between atoms: _557  and  _558
REMARK  227  A    between atoms: _557  and  _560
REMARK  228  A    between atoms: _560  and  _561
REMARK  229  A    between atoms: _564  and  _566
REMARK  230  A    between atoms: _566  and  _567
REMARK  231  A    between atoms: _566  and  _569
REMARK  232  A    between atoms: _569  and  _570
REMARK  233  A    between atoms: _575  and  _577
REMARK  234  A    between atoms: _577  and  _578
REMARK  235  A    between atoms: _577  and  _580
REMARK  236  A    between atoms: _580  and  _581
REMARK  237  A    between atoms: _581  and  _582
REMARK  238  A    between atoms: _582  and  _583
REMARK  239  A    between atoms: _592  and  _594
REMARK  240  A    between atoms: _594  and  _595
REMARK  241  A    between atoms: _594  and  _597
REMARK  242  A    between atoms: _597  and  _598
REMARK  243  A    between atoms: _598  and  _599
REMARK  244  A    between atoms: _601  and  _603
REMARK  245  A    between atoms: _603  and  _604
REMARK  246  A    between atoms: _603  and  _606
REMARK  247  A    between atoms: _606  and  _607
REMARK  248  A    between atoms: _607  and  _608
REMARK  249  A    between atoms: _610  and  _612
REMARK  250  A    between atoms: _612  and  _613
REMARK  251  A    between atoms: _612  and  _615
REMARK  252  A    between atoms: _615  and  _616
REMARK  253  A    between atoms: _616  and  _617
REMARK  254  A    between atoms: _617  and  _618
REMARK  255  A    between atoms: _618  and  _619
REMARK  256  A    between atoms: _623  and  _625
REMARK  257  A    between atoms: _625  and  _626
REMARK  258  A    between atoms: _625  and  _628
REMARK  259  A    between atoms: _628  and  _629
REMARK                            x       y       z     vdW  Elec       q    Type
REMARK                         _______ _______ _______ _____ _____    ______ ____
ROOT
ATOM      1  CA  ARG A   1      60.265   0.949  22.345  0.00  0.00    +0.145 C 
ENDROOT
BRANCH   1   2
ATOM      2  C   ARG A   1      59.265   1.083  21.191  0.00  0.00    +0.241 C 
ATOM      3  N   PRO A   2      57.991   0.754  21.447  0.00  0.00    -0.273 N 
ATOM      4  CD  PRO A   2      57.382   0.478  22.765  0.00  0.00    +0.094 C 
ATOM      5  CG  PRO A   2      55.890   0.675  22.499  0.00  0.00    +0.024 C 
ATOM      6  CB  PRO A   2      55.741   0.206  21.096  0.00  0.00    +0.030 C 
ATOM      7  CA  PRO A   2      56.959   0.800  20.401  0.00  0.00    +0.140 C 
ATOM      8  O   ARG A   1      59.609   1.516  20.088  0.00  0.00    -0.273 OA
BRANCH   7   9
ATOM      9  C   PRO A   2      56.637   2.117  19.732  0.00  0.00    +0.227 C 
ATOM     10  O   PRO A   2      56.659   3.159  20.368  0.00  0.00    -0.286 OA
ENDBRANCH   7   9
ENDBRANCH   1   2
BRANCH   1  11
ATOM     11  N   ARG A   1      61.386   0.160  21.813  0.00  0.00    -0.238 NA
ATOM     12  H   ARG A   1      62.115   0.622  21.233  0.00  0.00    +0.142 HD
ENDBRANCH   1  11
BRANCH   1  13
ATOM     13  CB  ARG A   1      60.774   2.287  22.881  0.00  0.00    +0.030 C 
BRANCH  13  14
ATOM     14  CG  ARG A   1      61.676   2.067  24.120  0.00  0.00    +0.045 C 
BRANCH  14  15
ATOM     15  CD  ARG A   1      62.102   3.351  24.833  0.00  0.00    +0.174 C 
BRANCH  15  16
ATOM     16  NE  ARG A   1      60.942   4.104  25.297  0.00  0.00    -0.265 N 
ATOM     17  CZ  ARG A   1      60.991   5.376  25.661  0.00  0.00    +0.342 C 
ATOM     18  NH2 ARG A   1      59.885   5.986  26.050  0.00  0.00    -0.292 N 
ATOM     19 HH21 ARG A   1      59.916   6.985  26.337  0.00  0.00    +0.255 HD
ATOM     20 HH22 ARG A   1      58.984   5.467  26.069  0.00  0.00    +0.255 HD
ATOM     21  NH1 ARG A   1      62.151   6.031  25.647  0.00  0.00    -0.292 N 
ATOM     22 HH11 ARG A   1      62.187   7.030  25.933  0.00  0.00    +0.255 HD
ATOM     23 HH12 ARG A   1      63.020   5.543  25.350  0.00  0.00    +0.255 HD
ATOM     24  HE  ARG A   1      60.026   3.614  25.345  0.00  0.00    +0.259 HD
ENDBRANCH  15  16
ENDBRANCH  14  15
ENDBRANCH  13  14
ENDBRANCH   1  13
TORSDOF 7
REMARK  Name = ../refined-set-2016/2pq9/2pq9_pocket.pdb
REMARK  259 active torsions:
REMARK  status: ('A' for Active; 'I' for Inactive)
REMARK    1  A    between atoms: _1  and  _3
REMARK    2  A    between atoms: _3  and  _4
REMARK    3  A    between atoms: _3  and  _6
REMARK    4  A    between atoms: _6  and  _7
REMARK    5  A    between atoms: _9  and  _11
REMARK    6  A    between atoms: _11  and  _12
REMARK    7  A    between atoms: _11  and  _14
REMARK    8  A    between atoms: _14  and  _15
REMARK    9  A    between atoms: _15  and  _16
REMARK   10  A    between atoms: _16  and  _17
REMARK   11  A    between atoms: _17  and  _18
REMARK   12  A    between atoms: _22  and  _24
REMARK   13  A    between atoms: _24  and  _25
REMARK   14  A    between atoms: _24  and  _27
REMARK   15  A    between atoms: _27  and  _28
REMARK   16  A    between atoms: _30  and  _32
REMARK   17  A    between atoms: _32  and  _33
REMARK   18  A    between atoms: _32  and  _35
REMARK   19  A    between atoms: _38  and  _40
REMARK   20  A    between atoms: _40  and  _41
REMARK   21  A    between atoms: _40  and  _43
REMARK   22  A    between atoms: _43  and  _44
REMARK   23  A    between atoms: _46  and  _48
REMARK   24  A    between atoms: _48  and  _49
REMARK   25  A    between atoms: _48  and  _51
REMARK   26  A    between atoms: _51  and  _52
REMARK   27  A    between atoms: _57  and  _59
REMARK   28  A    between atoms: _59  and  _60
REMARK   29  A    between atoms: _59  and  _62
REMARK   30  A    between atoms: _62  and  _63
REMARK   31  A    between atoms: _63  and  _64
REMARK   32  A    between atoms: _64  and  _65
REMARK   33  A    between atoms: _74  and  _76
REMARK   34  A    between atoms: _76  and  _77
REMARK   35  A    between atoms: _76  and  _79
REMARK   36  A    between atoms: _79  and  _80
REMARK   37  A    between atoms: _83  and  _85
REMARK   38  A    between atoms: _85  and  _86
REMARK   39  A    between atoms: _85  and  _88
REMARK   40  A    between atoms: _88  and  _89
REMARK   41  A    between atoms: _92  and  _94
REMARK   42  A    between atoms: _94  and  _95
REMARK   43  A    between atoms: _97  and  _99
REMARK   44  A    between atoms: _99  and  _100
REMARK   45  A    between atoms: _99  and  _102
REMARK   46  A    between atoms: _102  and  _103
REMARK   47  A    between atoms: _108  and  _110
REMARK   48  A    between atoms: _110  and  _111
REMARK   49  A    between atoms: _114  and  _116
REMARK   50  A    between atoms: _116  and  _117
REMARK   51  A    between atoms: _119  and  _121
REMARK   52  A    between atoms: _121  and  _122
REMARK   53  A    between atoms: _121  and  _124
REMARK   54  A    between atoms: _124  and  _125
REMARK   55  A    between atoms: _128  and  _130
REMARK   56  A    between atoms: _130  and  _131
REMARK   57  A    between atoms: _134  and  _136
REMARK   58  A    between atoms: _136  and  _137
REMARK   59  A    between atoms: _136  and  _139
REMARK   60  A    between atoms: _139  and  _140
REMARK   61  A    between atoms: _140  and  _141
REMARK   62  A    between atoms: _143  and  _145
REMARK   63  A    between atoms: _145  and  _146
REMARK   64  A    between atoms: _145  and  _148
REMARK   65  A    between atoms: _148  and  _149
REMARK   66  A    between atoms: _149  and  _150
REMARK   67  A    between atoms: _150  and  _151
REMARK   68  A    between atoms: _161  and  _162
REMARK   69  A    between atoms: _167  and  _169
REMARK   70  A    between atoms: _169  and  _170
REMARK   71  A    between atoms: _169  and  _172
REMARK   72  A    between atoms: _172  and  _173
REMARK   73  A    between atoms: _173  and  _174
REMARK   74  A    between atoms: _174  and  _175
REMARK   75  A    between atoms: _184  and  _186
REMARK   76  A    between atoms: _186  and  _187
REMARK   77  A    between atoms: _186  and  _189
REMARK   78  A    between atoms: _189  and  _190
REMARK   79  A    between atoms: _190  and  _191
REMARK   80  A    between atoms: _193  and  _195
REMARK   81  A    between atoms: _195  and  _196
REMARK   82  A    between atoms: _195  and  _198
REMARK   83  A    between atoms: _198  and  _199
REMARK   84  A    between atoms: _199  and  _200
REMARK   85  A    between atoms: _200  and  _201
REMARK   86  A    between atoms: _211  and  _212
REMARK   87  A    between atoms: _217  and  _219
REMARK   88  A    between atoms: _219  and  _220
REMARK   89  A    between atoms: _222  and  _224
REMARK   90  A    between atoms: _224  and  _225
REMARK   91  A    between atoms: _224  and  _227
REMARK   92  A    between atoms: _230  and  _232
REMARK   93  A    between atoms: _232  and  _233
REMARK   94  A    between atoms: _232  and  _235
REMARK   95  A    between atoms: _235  and  _236
REMARK   96  A    between atoms: _238  and  _240
REMARK   97  A    between atoms: _240  and  _241
REMARK   98  A    between atoms: _240  and  _243
REMARK   99  A    between atoms: _243  and  _244
REMARK  100  A    between atoms: _246  and  _248
REMARK  101  A    between atoms: _248  and  _249
REMARK  102  A    between atoms: _248  and  _251
REMARK  103  A    between atoms: _251  and  _252
REMARK  104  A    between atoms: _252  and  _253
REMARK  105  A    between atoms: _258  and  _260
REMARK  106  A    between atoms: _260  and  _261
REMARK  107  A    between atoms: _260  and  _263
REMARK  108  A    between atoms: _263  and  _264
REMARK  109  A    between atoms: _270  and  _272
REMARK  110  A    between atoms: _272  and  _273
REMARK  111  A    between atoms: _272  and  _275
REMARK  112  A    between atoms: _275  and  _276
REMARK  113  A    between atoms: _279  and  _281
REMARK  114  A    between atoms: _281  and  _282
REMARK  115  A    between atoms: _281  and  _284
REMARK  116  A    between atoms: _284  and  _285
REMARK  117  A    between atoms: _288  and  _290
REMARK  118  A    between atoms: _290  and  _291
REMARK  119  A    between atoms: _294  and  _296
REMARK  120  A    between atoms: _296  and  _297
REMARK  121  A    between atoms: _296  and  _299
REMARK  122  A    between atoms: _299  and  _300
REMARK  123  A    between atoms: _303  and  _305
REMARK  124  A    between atoms: _305  and  _306
REMARK  125  A    between atoms: _305  and  _308
REMARK  126  A    between atoms: _311  and  _313
REMARK  127  A    between atoms: _313  and  _314
REMARK  128  A    between atoms: _313  and  _316
REMARK  129  A    between atoms: _316  and  _317
REMARK  130  A    between atoms: _319  and  _321
REMARK  131  A    between atoms: _321  and  _322
REMARK  132  A    between atoms: _321  and  _324
REMARK  133  A    between atoms: _324  and  _325
REMARK  134  A    between atoms: _325  and  _326
REMARK  135  A    between atoms: _326  and  _327
REMARK  136  A    between atoms: _327  and  _328
REMARK  137  A    between atoms: _333  and  _334
REMARK  138  A    between atoms: _339  and  _341
REMARK  139  A    between atoms: _341  and  _342
REMARK  140  A    between atoms: _341  and  _344
REMARK  141  A    between atoms: _344  and  _345
REMARK  142  A    between atoms: _350  and  _351
REMARK  143  A    between atoms: _353  and  _355
REMARK  144  A    between atoms: _355  and  _356
REMARK  145  A    between atoms: _355  and  _358
REMARK  146  A    between atoms: _358  and  _359
REMARK  147  A    between atoms: _362  and  _364
REMARK  148  A    between atoms: _364  and  _365
REMARK  149  A    between atoms: _364  and  _367
REMARK  150  A    between atoms: _367  and  _368
REMARK  151  A    between atoms: _371  and  _373
REMARK  152  A    between atoms: _373  and  _374
REMARK  153  A    between atoms: _373  and  _376
REMARK  154  A    between atoms: _376  and  _377
REMARK  155  A    between atoms: _380  and  _382
REMARK  156  A    between atoms: _382  and  _383
REMARK  157  A    between atoms: _382  and  _385
REMARK  158  A    between atoms: _385  and  _386
REMARK  159  A    between atoms: _389  and  _391
REMARK  160  A    between atoms: _391  and  _392
REMARK  161  A    between atoms: _391  and  _394
REMARK  162  A    between atoms: _394  and  _395
REMARK  163  A    between atoms: _397  and  _399
REMARK  164  A    between atoms: _399  and  _400
REMARK  165  A    between atoms: _399  and  _402
REMARK  166  A    between atoms: _402  and  _403
REMARK  167  A    between atoms: _408  and  _409
REMARK  168  A    between atoms: _411  and  _413
REMARK  169  A    between atoms: _413  and  _414
REMARK  170  A    between atoms: _413  and  _416
REMARK  171  A    between atoms: _416  and  _417
REMARK  172  A    between atoms: _420  and  _422
REMARK  173  A    between atoms: _422  and  _423
REMARK  174  A    between atoms: _422  and  _425
REMARK  175  A    between atoms: _425  and  _426
REMARK  176  A    between atoms: _431  and  _433
REMARK  177  A    between atoms: _433  and  _434
REMARK  178  A    between atoms: _433  and  _436
REMARK  179  A    between atoms: _436  and  _437
REMARK  180  A    between atoms: _441  and  _442
REMARK  181  A    between atoms: _447  and  _449
REMARK  182  A    between atoms: _449  and  _450
REMARK  183  A    between atoms: _449  and  _452
REMARK  184  A    between atoms: _452  and  _453
REMARK  185  A    between atoms: _456  and  _458
REMARK  186  A    between atoms: _458  and  _459
REMARK  187  A    between atoms: _462  and  _464
REMARK  188  A    between atoms: _464  and  _465
REMARK  189  A    between atoms: _464  and  _467
REMARK  190  A    between atoms: _467  and  _468
REMARK  191  A    between atoms: _468  and  _469
REMARK  192  A    between atoms: _471  and  _473
REMARK  193  A    between atoms: _473  and  _474
REMARK  194  A    between atoms: _473  and  _476
REMARK  195  A    between atoms: _476  and  _477
REMARK  196  A    between atoms: _482  and  _484
REMARK  197  A    between atoms: _484  and  _485
REMARK  198  A    between atoms: _484  and  _487
REMARK  199  A    between atoms: _487  and  _488
REMARK  200  A    between atoms: _498  and  _500
REMARK  201  A    between atoms: _500  and  _501
REMARK  202  A    between atoms: _500  and  _503
REMARK  203  A    between atoms: _506  and  _508
REMARK  204  A    between atoms: _508  and  _509
REMARK  205  A    between atoms: _508  and  _511
REMARK  206  A    between atoms: _511  and  _512
REMARK  207  A    between atoms: _512  and  _513
REMARK  208  A    between atoms: _513  and  _514
REMARK  209  A    between atoms: _514  and  _515
REMARK  210  A    between atoms: _519  and  _521
REMARK  211  A    between atoms: _521  and  _522
REMARK  212  A    between atoms: _521  and  _524
REMARK  213  A    between atoms: _524  and  _525
REMARK  214  A    between atoms: _525  and  _526
REMARK  215  A    between atoms: _529  and  _531
REMARK  216  A    between atoms: _531  and  _532
REMARK  217  A    between atoms: _531  and  _534
REMARK  218  A    between atoms: _534  and  _535
REMARK  219  A    between atoms: _538  and  _540
REMARK  220  A    between atoms: _540  and  _541
REMARK  221  A    between atoms: _540  and  _543
REMARK  222  A    between atoms: _543  and  _544
REMARK  223  A    between atoms: _544  and  _545
REMARK  224  A    between atoms: _545  and  _546
REMARK  225  A    between atoms: _555  and  _557
REMARK  226  A    between atoms: _557  and  _558
REMARK  227  A    between atoms: _557  and  _560
REMARK  228  A    between atoms: _560  and  _561
REMARK  229  A    between atoms: _564  and  _566
REMARK  230  A    between atoms: _566  and  _567
REMARK  231  A    between atoms: _566  and  _569
REMARK  232  A    between atoms: _569  and  _570
REMARK  233  A    between atoms: _575  and  _577
REMARK  234  A    between atoms: _577  and  _578
REMARK  235  A    between atoms: _577  and  _580
REMARK  236  A    between atoms: _580  and  _581
REMARK  237  A    between atoms: _581  and  _582
REMARK  238  A    between atoms: _582  and  _583
REMARK  239  A    between atoms: _592  and  _594
REMARK  240  A    between atoms: _594  and  _595
REMARK  241  A    between atoms: _594  and  _597
REMARK  242  A    between atoms: _597  and  _598
REMARK  243  A    between atoms: _598  and  _599
REMARK  244  A    between atoms: _601  and  _603
REMARK  245  A    between atoms: _603  and  _604
REMARK  246  A    between atoms: _603  and  _606
REMARK  247  A    between atoms: _606  and  _607
REMARK  248  A    between atoms: _607  and  _608
REMARK  249  A    between atoms: _610  and  _612
REMARK  250  A    between atoms: _612  and  _613
REMARK  251  A    between atoms: _612  and  _615
REMARK  252  A    between atoms: _615  and  _616
REMARK  253  A    between atoms: _616  and  _617
REMARK  254  A    between atoms: _617  and  _618
REMARK  255  A    between atoms: _618  and  _619
REMARK  256  A    between atoms: _623  and  _625
REMARK  257  A    between atoms: _625  and  _626
REMARK  258  A    between atoms: _625  and  _628
REMARK  259  A    between atoms: _628  and  _629
REMARK                            x       y       z     vdW  Elec       q    Type
REMARK                         _______ _______ _______ _____ _____    ______ ____
ROOT
ATOM      1  CA  GLY A   1      46.264   5.983  23.133  0.00  0.00    +0.156 C 
ENDROOT
BRANCH   1   2
ATOM      2  N   GLY A   1      45.625   5.246  22.048  0.00  0.00    -0.238 NA
ATOM      3  H   GLY A   1      44.650   4.901  22.158  0.00  0.00    +0.142 HD
ENDBRANCH   1   2
BRANCH   1   4
ATOM      4  C   GLY A   1      46.530   5.107  24.351  0.00  0.00    +0.226 C 
ATOM      5  O   GLY A   1      46.911   5.614  25.414  0.00  0.00    -0.287 OA
ENDBRANCH   1   4
TORSDOF 2
REMARK  Name = ../refined-set-2016/2pq9/2pq9_pocket.pdb
REMARK  259 active torsions:
REMARK  status: ('A' for Active; 'I' for Inactive)
REMARK    1  A    between atoms: _1  and  _3
REMARK    2  A    between atoms: _3  and  _4
REMARK    3  A    between atoms: _3  and  _6
REMARK    4  A    between atoms: _6  and  _7
REMARK    5  A    between atoms: _9  and  _11
REMARK    6  A    between atoms: _11  and  _12
REMARK    7  A    between atoms: _11  and  _14
REMARK    8  A    between atoms: _14  and  _15
REMARK    9  A    between atoms: _15  and  _16
REMARK   10  A    between atoms: _16  and  _17
REMARK   11  A    between atoms: _17  and  _18
REMARK   12  A    between atoms: _22  and  _24
REMARK   13  A    between atoms: _24  and  _25
REMARK   14  A    between atoms: _24  and  _27
REMARK   15  A    between atoms: _27  and  _28
REMARK   16  A    between atoms: _30  and  _32
REMARK   17  A    between atoms: _32  and  _33
REMARK   18  A    between atoms: _32  and  _35
REMARK   19  A    between atoms: _38  and  _40
REMARK   20  A    between atoms: _40  and  _41
REMARK   21  A    between atoms: _40  and  _43
REMARK   22  A    between atoms: _43  and  _44
REMARK   23  A    between atoms: _46  and  _48
REMARK   24  A    between atoms: _48  and  _49
REMARK   25  A    between atoms: _48  and  _51
REMARK   26  A    between atoms: _51  and  _52
REMARK   27  A    between atoms: _57  and  _59
REMARK   28  A    between atoms: _59  and  _60
REMARK   29  A    between atoms: _59  and  _62
REMARK   30  A    between atoms: _62  and  _63
REMARK   31  A    between atoms: _63  and  _64
REMARK   32  A    between atoms: _64  and  _65
REMARK   33  A    between atoms: _74  and  _76
REMARK   34  A    between atoms: _76  and  _77
REMARK   35  A    between atoms: _76  and  _79
REMARK   36  A    between atoms: _79  and  _80
REMARK   37  A    between atoms: _83  and  _85
REMARK   38  A    between atoms: _85  and  _86
REMARK   39  A    between atoms: _85  and  _88
REMARK   40  A    between atoms: _88  and  _89
REMARK   41  A    between atoms: _92  and  _94
REMARK   42  A    between atoms: _94  and  _95
REMARK   43  A    between atoms: _97  and  _99
REMARK   44  A    between atoms: _99  and  _100
REMARK   45  A    between atoms: _99  and  _102
REMARK   46  A    between atoms: _102  and  _103
REMARK   47  A    between atoms: _108  and  _110
REMARK   48  A    between atoms: _110  and  _111
REMARK   49  A    between atoms: _114  and  _116
REMARK   50  A    between atoms: _116  and  _117
REMARK   51  A    between atoms: _119  and  _121
REMARK   52  A    between atoms: _121  and  _122
REMARK   53  A    between atoms: _121  and  _124
REMARK   54  A    between atoms: _124  and  _125
REMARK   55  A    between atoms: _128  and  _130
REMARK   56  A    between atoms: _130  and  _131
REMARK   57  A    between atoms: _134  and  _136
REMARK   58  A    between atoms: _136  and  _137
REMARK   59  A    between atoms: _136  and  _139
REMARK   60  A    between atoms: _139  and  _140
REMARK   61  A    between atoms: _140  and  _141
REMARK   62  A    between atoms: _143  and  _145
REMARK   63  A    between atoms: _145  and  _146
REMARK   64  A    between atoms: _145  and  _148
REMARK   65  A    between atoms: _148  and  _149
REMARK   66  A    between atoms: _149  and  _150
REMARK   67  A    between atoms: _150  and  _151
REMARK   68  A    between atoms: _161  and  _162
REMARK   69  A    between atoms: _167  and  _169
REMARK   70  A    between atoms: _169  and  _170
REMARK   71  A    between atoms: _169  and  _172
REMARK   72  A    between atoms: _172  and  _173
REMARK   73  A    between atoms: _173  and  _174
REMARK   74  A    between atoms: _174  and  _175
REMARK   75  A    between atoms: _184  and  _186
REMARK   76  A    between atoms: _186  and  _187
REMARK   77  A    between atoms: _186  and  _189
REMARK   78  A    between atoms: _189  and  _190
REMARK   79  A    between atoms: _190  and  _191
REMARK   80  A    between atoms: _193  and  _195
REMARK   81  A    between atoms: _195  and  _196
REMARK   82  A    between atoms: _195  and  _198
REMARK   83  A    between atoms: _198  and  _199
REMARK   84  A    between atoms: _199  and  _200
REMARK   85  A    between atoms: _200  and  _201
REMARK   86  A    between atoms: _211  and  _212
REMARK   87  A    between atoms: _217  and  _219
REMARK   88  A    between atoms: _219  and  _220
REMARK   89  A    between atoms: _222  and  _224
REMARK   90  A    between atoms: _224  and  _225
REMARK   91  A    between atoms: _224  and  _227
REMARK   92  A    between atoms: _230  and  _232
REMARK   93  A    between atoms: _232  and  _233
REMARK   94  A    between atoms: _232  and  _235
REMARK   95  A    between atoms: _235  and  _236
REMARK   96  A    between atoms: _238  and  _240
REMARK   97  A    between atoms: _240  and  _241
REMARK   98  A    between atoms: _240  and  _243
REMARK   99  A    between atoms: _243  and  _244
REMARK  100  A    between atoms: _246  and  _248
REMARK  101  A    between atoms: _248  and  _249
REMARK  102  A    between atoms: _248  and  _251
REMARK  103  A    between atoms: _251  and  _252
REMARK  104  A    between atoms: _252  and  _253
REMARK  105  A    between atoms: _258  and  _260
REMARK  106  A    between atoms: _260  and  _261
REMARK  107  A    between atoms: _260  and  _263
REMARK  108  A    between atoms: _263  and  _264
REMARK  109  A    between atoms: _270  and  _272
REMARK  110  A    between atoms: _272  and  _273
REMARK  111  A    between atoms: _272  and  _275
REMARK  112  A    between atoms: _275  and  _276
REMARK  113  A    between atoms: _279  and  _281
REMARK  114  A    between atoms: _281  and  _282
REMARK  115  A    between atoms: _281  and  _284
REMARK  116  A    between atoms: _284  and  _285
REMARK  117  A    between atoms: _288  and  _290
REMARK  118  A    between atoms: _290  and  _291
REMARK  119  A    between atoms: _294  and  _296
REMARK  120  A    between atoms: _296  and  _297
REMARK  121  A    between atoms: _296  and  _299
REMARK  122  A    between atoms: _299  and  _300
REMARK  123  A    between atoms: _303  and  _305
REMARK  124  A    between atoms: _305  and  _306
REMARK  125  A    between atoms: _305  and  _308
REMARK  126  A    between atoms: _311  and  _313
REMARK  127  A    between atoms: _313  and  _314
REMARK  128  A    between atoms: _313  and  _316
REMARK  129  A    between atoms: _316  and  _317
REMARK  130  A    between atoms: _319  and  _321
REMARK  131  A    between atoms: _321  and  _322
REMARK  132  A    between atoms: _321  and  _324
REMARK  133  A    between atoms: _324  and  _325
REMARK  134  A    between atoms: _325  and  _326
REMARK  135  A    between atoms: _326  and  _327
REMARK  136  A    between atoms: _327  and  _328
REMARK  137  A    between atoms: _333  and  _334
REMARK  138  A    between atoms: _339  and  _341
REMARK  139  A    between atoms: _341  and  _342
REMARK  140  A    between atoms: _341  and  _344
REMARK  141  A    between atoms: _344  and  _345
REMARK  142  A    between atoms: _350  and  _351
REMARK  143  A    between atoms: _353  and  _355
REMARK  144  A    between atoms: _355  and  _356
REMARK  145  A    between atoms: _355  and  _358
REMARK  146  A    between atoms: _358  and  _359
REMARK  147  A    between atoms: _362  and  _364
REMARK  148  A    between atoms: _364  and  _365
REMARK  149  A    between atoms: _364  and  _367
REMARK  150  A    between atoms: _367  and  _368
REMARK  151  A    between atoms: _371  and  _373
REMARK  152  A    between atoms: _373  and  _374
REMARK  153  A    between atoms: _373  and  _376
REMARK  154  A    between atoms: _376  and  _377
REMARK  155  A    between atoms: _380  and  _382
REMARK  156  A    between atoms: _382  and  _383
REMARK  157  A    between atoms: _382  and  _385
REMARK  158  A    between atoms: _385  and  _386
REMARK  159  A    between atoms: _389  and  _391
REMARK  160  A    between atoms: _391  and  _392
REMARK  161  A    between atoms: _391  and  _394
REMARK  162  A    between atoms: _394  and  _395
REMARK  163  A    between atoms: _397  and  _399
REMARK  164  A    between atoms: _399  and  _400
REMARK  165  A    between atoms: _399  and  _402
REMARK  166  A    between atoms: _402  and  _403
REMARK  167  A    between atoms: _408  and  _409
REMARK  168  A    between atoms: _411  and  _413
REMARK  169  A    between atoms: _413  and  _414
REMARK  170  A    between atoms: _413  and  _416
REMARK  171  A    between atoms: _416  and  _417
REMARK  172  A    between atoms: _420  and  _422
REMARK  173  A    between atoms: _422  and  _423
REMARK  174  A    between atoms: _422  and  _425
REMARK  175  A    between atoms: _425  and  _426
REMARK  176  A    between atoms: _431  and  _433
REMARK  177  A    between atoms: _433  and  _434
REMARK  178  A    between atoms: _433  and  _436
REMARK  179  A    between atoms: _436  and  _437
REMARK  180  A    between atoms: _441  and  _442
REMARK  181  A    between atoms: _447  and  _449
REMARK  182  A    between atoms: _449  and  _450
REMARK  183  A    between atoms: _449  and  _452
REMARK  184  A    between atoms: _452  and  _453
REMARK  185  A    between atoms: _456  and  _458
REMARK  186  A    between atoms: _458  and  _459
REMARK  187  A    between atoms: _462  and  _464
REMARK  188  A    between atoms: _464  and  _465
REMARK  189  A    between atoms: _464  and  _467
REMARK  190  A    between atoms: _467  and  _468
REMARK  191  A    between atoms: _468  and  _469
REMARK  192  A    between atoms: _471  and  _473
REMARK  193  A    between atoms: _473  and  _474
REMARK  194  A    between atoms: _473  and  _476
REMARK  195  A    between atoms: _476  and  _477
REMARK  196  A    between atoms: _482  and  _484
REMARK  197  A    between atoms: _484  and  _485
REMARK  198  A    between atoms: _484  and  _487
REMARK  199  A    between atoms: _487  and  _488
REMARK  200  A    between atoms: _498  and  _500
REMARK  201  A    between atoms: _500  and  _501
REMARK  202  A    between atoms: _500  and  _503
REMARK  203  A    between atoms: _506  and  _508
REMARK  204  A    between atoms: _508  and  _509
REMARK  205  A    between atoms: _508  and  _511
REMARK  206  A    between atoms: _511  and  _512
REMARK  207  A    between atoms: _512  and  _513
REMARK  208  A    between atoms: _513  and  _514
REMARK  209  A    between atoms: _514  and  _515
REMARK  210  A    between atoms: _519  and  _521
REMARK  211  A    between atoms: _521  and  _522
REMARK  212  A    between atoms: _521  and  _524
REMARK  213  A    between atoms: _524  and  _525
REMARK  214  A    between atoms: _525  and  _526
REMARK  215  A    between atoms: _529  and  _531
REMARK  216  A    between atoms: _531  and  _532
REMARK  217  A    between atoms: _531  and  _534
REMARK  218  A    between atoms: _534  and  _535
REMARK  219  A    between atoms: _538  and  _540
REMARK  220  A    between atoms: _540  and  _541
REMARK  221  A    between atoms: _540  and  _543
REMARK  222  A    between atoms: _543  and  _544
REMARK  223  A    between atoms: _544  and  _545
REMARK  224  A    between atoms: _545  and  _546
REMARK  225  A    between atoms: _555  and  _557
REMARK  226  A    between atoms: _557  and  _558
REMARK  227  A    between atoms: _557  and  _560
REMARK  228  A    between atoms: _560  and  _561
REMARK  229  A    between atoms: _564  and  _566
REMARK  230  A    between atoms: _566  and  _567
REMARK  231  A    between atoms: _566  and  _569
REMARK  232  A    between atoms: _569  and  _570
REMARK  233  A    between atoms: _575  and  _577
REMARK  234  A    between atoms: _577  and  _578
REMARK  235  A    between atoms: _577  and  _580
REMARK  236  A    between atoms: _580  and  _581
REMARK  237  A    between atoms: _581  and  _582
REMARK  238  A    between atoms: _582  and  _583
REMARK  239  A    between atoms: _592  and  _594
REMARK  240  A    between atoms: _594  and  _595
REMARK  241  A    between atoms: _594  and  _597
REMARK  242  A    between atoms: _597  and  _598
REMARK  243  A    between atoms: _598  and  _599
REMARK  244  A    between atoms: _601  and  _603
REMARK  245  A    between atoms: _603  and  _604
REMARK  246  A    between atoms: _603  and  _606
REMARK  247  A    between atoms: _606  and  _607
REMARK  248  A    between atoms: _607  and  _608
REMARK  249  A    between atoms: _610  and  _612
REMARK  250  A    between atoms: _612  and  _613
REMARK  251  A    between atoms: _612  and  _615
REMARK  252  A    between atoms: _615  and  _616
REMARK  253  A    between atoms: _616  and  _617
REMARK  254  A    between atoms: _617  and  _618
REMARK  255  A    between atoms: _618  and  _619
REMARK  256  A    between atoms: _623  and  _625
REMARK  257  A    between atoms: _625  and  _626
REMARK  258  A    between atoms: _625  and  _628
REMARK  259  A    between atoms: _628  and  _629
REMARK                            x       y       z     vdW  Elec       q    Type
REMARK                         _______ _______ _______ _____ _____    ______ ____
ROOT
ATOM      1  C   GLN A   4      53.079  10.391  21.370  0.00  0.00    +0.241 C 
ATOM      2  N   PHE A   5      52.289   9.376  21.029  0.00  0.00    -0.297 N 
ATOM      3  H   PHE A   5      52.002   8.679  21.745  0.00  0.00    +0.150 HD
ATOM      4  O   GLN A   4      53.460  11.237  20.570  0.00  0.00    -0.273 OA
ENDROOT
BRANCH   2   5
ATOM      5  CA  PHE A   5      51.826   9.240  19.656  0.00  0.00    +0.153 C 
BRANCH   5   6
ATOM      6  C   PHE A   5      50.826  10.369  19.370  0.00  0.00    +0.241 C 
ATOM      7  N   LEU A   6      49.867  10.580  20.280  0.00  0.00    -0.297 N 
ATOM      8  H   LEU A   6      49.802   9.957  21.110  0.00  0.00    +0.150 HD
ATOM      9  O   PHE A   5      50.945  11.058  18.351  0.00  0.00    -0.273 OA
BRANCH   7  10
ATOM     10  CA  LEU A   6      48.909  11.675  20.123  0.00  0.00    +0.149 C 
BRANCH  10  11
ATOM     11  C   LEU A   6      49.670  13.012  20.184  0.00  0.00    +0.241 C 
ATOM     12  N   THR A   7      50.608  13.142  21.117  0.00  0.00    -0.295 N 
ATOM     13  H   THR A   7      50.784  12.379  21.801  0.00  0.00    +0.150 HD
ATOM     14  O   LEU A   6      49.428  13.930  19.395  0.00  0.00    -0.273 OA
BRANCH  12  15
ATOM     15  CA  THR A   7      51.382  14.371  21.162  0.00  0.00    +0.176 C 
BRANCH  15  16
ATOM     16  C   THR A   7      52.014  14.697  19.800  0.00  0.00    +0.243 C 
ATOM     17  O   THR A   7      51.917  15.828  19.320  0.00  0.00    -0.273 OA
ATOM     18  N   ALA A   8      52.641  13.701  19.171  0.00  0.00    -0.298 N 
ATOM     19  H   ALA A   8      52.663  12.761  19.616  0.00  0.00    +0.150 HD
BRANCH  18  20
ATOM     20  CA  ALA A   8      53.295  13.886  17.883  0.00  0.00    +0.137 C 
ATOM     21  CB  ALA A   8      53.985  12.617  17.470  0.00  0.00    +0.030 C 
BRANCH  20  22
ATOM     22  C   ALA A   8      52.311  14.307  16.798  0.00  0.00    +0.227 C 
ATOM     23  O   ALA A   8      52.625  15.171  15.986  0.00  0.00    -0.286 OA
ENDBRANCH  20  22
ENDBRANCH  18  20
ENDBRANCH  15  16
BRANCH  15  24
ATOM     24  CB  THR A   7      52.472  14.272  22.243  0.00  0.00    +0.137 C 
ATOM     25  CG2 THR A   7      53.670  15.163  21.915  0.00  0.00    +0.034 C 
BRANCH  24  26
ATOM     26  OG1 THR A   7      51.894  14.662  23.497  0.00  0.00    -0.382 OA
ATOM     27  HG1 THR A   7      51.562  15.592  23.431  0.00  0.00    +0.210 HD
ENDBRANCH  24  26
ENDBRANCH  15  24
ENDBRANCH  12  15
ENDBRANCH  10  11
BRANCH  10  28
ATOM     28  CB  LEU A   6      47.844  11.597  21.232  0.00  0.00    +0.029 C 
BRANCH  28  29
ATOM     29  CG  LEU A   6      46.879  12.784  21.260  0.00  0.00    +0.002 C 
ATOM     30  CD2 LEU A   6      45.921  12.641  22.459  0.00  0.00    +0.000 C 
ATOM     31  CD1 LEU A   6      46.106  12.825  19.950  0.00  0.00    +0.000 C 
ENDBRANCH  28  29
ENDBRANCH  10  28
ENDBRANCH   7  10
ENDBRANCH   5   6
BRANCH   5  32
ATOM     32  CB  PHE A   5      51.229   7.852  19.438  0.00  0.00    +0.055 C 
BRANCH  32  33
ATOM     33  CG  PHE A   5      52.116   6.726  19.938  0.00  0.00    -0.020 A 
ATOM     34  CD2 PHE A   5      51.548   5.589  20.519  0.00  0.00    -0.004 A 
ATOM     35  CE2 PHE A   5      52.335   4.524  20.929  0.00  0.00    -0.000 A 
ATOM     36  CZ  PHE A   5      53.745   4.581  20.760  0.00  0.00    -0.000 A 
ATOM     37  CE1 PHE A   5      54.326   5.702  20.189  0.00  0.00    -0.000 A 
ATOM     38  CD1 PHE A   5      53.508   6.781  19.779  0.00  0.00    -0.004 A 
ENDBRANCH  32  33
ENDBRANCH   5  32
ENDBRANCH   2   5
BRANCH   1  39
ATOM     39  CA  GLN A   4      53.519  10.479  22.821  0.00  0.00    +0.149 C 
BRANCH  39  41
ATOM     40  C   SER A   3      51.419  10.251  23.973  0.00  0.00    +0.243 C 
ATOM     41  N   GLN A   4      52.662   9.812  23.782  0.00  0.00    -0.297 N 
ATOM     42  H   GLN A   4      53.016   8.995  24.319  0.00  0.00    +0.150 HD
ATOM     43  O   SER A   3      50.945  11.168  23.307  0.00  0.00    -0.273 OA
BRANCH  40  44
ATOM     44  CA  SER A   3      50.566   9.561  25.036  0.00  0.00    +0.178 C 
BRANCH  44  46
ATOM     45  C   SER A   2      51.029   7.225  24.612  0.00  0.00    +0.243 C 
ATOM     46  N   SER A   3      51.193   8.295  25.382  0.00  0.00    -0.295 N 
ATOM     47  H   SER A   3      51.776   8.227  26.241  0.00  0.00    +0.150 HD
ATOM     48  O   SER A   2      50.281   7.208  23.628  0.00  0.00    -0.273 OA
BRANCH  45  49
ATOM     49  CA  SER A   2      51.811   5.982  25.009  0.00  0.00    +0.178 C 
BRANCH  49  52
ATOM     50  C   VAL A   1      51.187   3.713  25.573  0.00  0.00    +0.238 C 
ATOM     51  O   VAL A   1      51.986   3.703  26.513  0.00  0.00    -0.274 OA
ATOM     52  N   SER A   2      51.050   4.763  24.775  0.00  0.00    -0.295 N 
ATOM     53  H   SER A   2      50.391   4.715  23.972  0.00  0.00    +0.150 HD
BRANCH  50  54
ATOM     54  CA  VAL A   1      50.331   2.480  25.257  0.00  0.00    +0.145 C 
BRANCH  54  55
ATOM     55  CB  VAL A   1      50.979   1.697  24.088  0.00  0.00    +0.025 C 
ATOM     56  CG2 VAL A   1      52.487   1.548  24.319  0.00  0.00    +0.002 C 
ATOM     57  CG1 VAL A   1      50.329   0.323  23.965  0.00  0.00    +0.002 C 
ENDBRANCH  54  55
BRANCH  54  58
ATOM     58  N   VAL A   1      48.939   2.805  24.931  0.00  0.00    -0.238 NA
ATOM     59  H   VAL A   1      48.727   3.280  24.031  0.00  0.00    +0.142 HD
ENDBRANCH  54  58
ENDBRANCH  50  54
ENDBRANCH  49  52
BRANCH  49  60
ATOM     60  CB  SER A   2      53.148   5.958  24.226  0.00  0.00    +0.166 C 
BRANCH  60  61
ATOM     61  OG  SER A   2      53.871   7.174  24.423  0.00  0.00    -0.380 OA
ATOM     62  H   SER A   2      54.066   7.288  25.387  0.00  0.00    +0.211 HD
ENDBRANCH  60  61
ENDBRANCH  49  60
ENDBRANCH  45  49
ENDBRANCH  44  46
BRANCH  44  63
ATOM     63  CB  SER A   3      50.469  10.492  26.248  0.00  0.00    +0.166 C 
BRANCH  63  64
ATOM     64  OG  SER A   3      51.743  10.913  26.715  0.00  0.00    -0.380 OA
ATOM     65  H   SER A   3      52.274  10.121  26.981  0.00  0.00    +0.211 HD
ENDBRANCH  63  64
ENDBRANCH  44  63
ENDBRANCH  40  44
ENDBRANCH  39  41
BRANCH  39  66
ATOM     66  CB  GLN A   4      54.954   9.978  22.962  0.00  0.00    +0.039 C 
BRANCH  66  67
ATOM     67  CG  GLN A   4      55.547  10.318  24.325  0.00  0.00    +0.087 C 
BRANCH  67  68
ATOM     68  CD  GLN A   4      57.055  10.180  24.365  0.00  0.00    +0.219 C 
ATOM     69  NE2 GLN A   4      57.652  10.519  25.503  0.00  0.00    -0.329 N 
ATOM     70 HE21 GLN A   4      57.085  10.849  26.310  0.00  0.00    +0.145 HD
ATOM     71 HE22 GLN A   4      58.687  10.454  25.587  0.00  0.00    +0.145 HD
ATOM     72  OE1 GLN A   4      57.676   9.788  23.393  0.00  0.00    -0.275 OA
ENDBRANCH  67  68
ENDBRANCH  66  67
ENDBRANCH  39  66
ENDBRANCH   1  39
TORSDOF 30
REMARK  Name = ../refined-set-2016/2pq9/2pq9_pocket.pdb
REMARK  259 active torsions:
REMARK  status: ('A' for Active; 'I' for Inactive)
REMARK    1  A    between atoms: _1  and  _3
REMARK    2  A    between atoms: _3  and  _4
REMARK    3  A    between atoms: _3  and  _6
REMARK    4  A    between atoms: _6  and  _7
REMARK    5  A    between atoms: _9  and  _11
REMARK    6  A    between atoms: _11  and  _12
REMARK    7  A    between atoms: _11  and  _14
REMARK    8  A    between atoms: _14  and  _15
REMARK    9  A    between atoms: _15  and  _16
REMARK   10  A    between atoms: _16  and  _17
REMARK   11  A    between atoms: _17  and  _18
REMARK   12  A    between atoms: _22  and  _24
REMARK   13  A    between atoms: _24  and  _25
REMARK   14  A    between atoms: _24  and  _27
REMARK   15  A    between atoms: _27  and  _28
REMARK   16  A    between atoms: _30  and  _32
REMARK   17  A    between atoms: _32  and  _33
REMARK   18  A    between atoms: _32  and  _35
REMARK   19  A    between atoms: _38  and  _40
REMARK   20  A    between atoms: _40  and  _41
REMARK   21  A    between atoms: _40  and  _43
REMARK   22  A    between atoms: _43  and  _44
REMARK   23  A    between atoms: _46  and  _48
REMARK   24  A    between atoms: _48  and  _49
REMARK   25  A    between atoms: _48  and  _51
REMARK   26  A    between atoms: _51  and  _52
REMARK   27  A    between atoms: _57  and  _59
REMARK   28  A    between atoms: _59  and  _60
REMARK   29  A    between atoms: _59  and  _62
REMARK   30  A    between atoms: _62  and  _63
REMARK   31  A    between atoms: _63  and  _64
REMARK   32  A    between atoms: _64  and  _65
REMARK   33  A    between atoms: _74  and  _76
REMARK   34  A    between atoms: _76  and  _77
REMARK   35  A    between atoms: _76  and  _79
REMARK   36  A    between atoms: _79  and  _80
REMARK   37  A    between atoms: _83  and  _85
REMARK   38  A    between atoms: _85  and  _86
REMARK   39  A    between atoms: _85  and  _88
REMARK   40  A    between atoms: _88  and  _89
REMARK   41  A    between atoms: _92  and  _94
REMARK   42  A    between atoms: _94  and  _95
REMARK   43  A    between atoms: _97  and  _99
REMARK   44  A    between atoms: _99  and  _100
REMARK   45  A    between atoms: _99  and  _102
REMARK   46  A    between atoms: _102  and  _103
REMARK   47  A    between atoms: _108  and  _110
REMARK   48  A    between atoms: _110  and  _111
REMARK   49  A    between atoms: _114  and  _116
REMARK   50  A    between atoms: _116  and  _117
REMARK   51  A    between atoms: _119  and  _121
REMARK   52  A    between atoms: _121  and  _122
REMARK   53  A    between atoms: _121  and  _124
REMARK   54  A    between atoms: _124  and  _125
REMARK   55  A    between atoms: _128  and  _130
REMARK   56  A    between atoms: _130  and  _131
REMARK   57  A    between atoms: _134  and  _136
REMARK   58  A    between atoms: _136  and  _137
REMARK   59  A    between atoms: _136  and  _139
REMARK   60  A    between atoms: _139  and  _140
REMARK   61  A    between atoms: _140  and  _141
REMARK   62  A    between atoms: _143  and  _145
REMARK   63  A    between atoms: _145  and  _146
REMARK   64  A    between atoms: _145  and  _148
REMARK   65  A    between atoms: _148  and  _149
REMARK   66  A    between atoms: _149  and  _150
REMARK   67  A    between atoms: _150  and  _151
REMARK   68  A    between atoms: _161  and  _162
REMARK   69  A    between atoms: _167  and  _169
REMARK   70  A    between atoms: _169  and  _170
REMARK   71  A    between atoms: _169  and  _172
REMARK   72  A    between atoms: _172  and  _173
REMARK   73  A    between atoms: _173  and  _174
REMARK   74  A    between atoms: _174  and  _175
REMARK   75  A    between atoms: _184  and  _186
REMARK   76  A    between atoms: _186  and  _187
REMARK   77  A    between atoms: _186  and  _189
REMARK   78  A    between atoms: _189  and  _190
REMARK   79  A    between atoms: _190  and  _191
REMARK   80  A    between atoms: _193  and  _195
REMARK   81  A    between atoms: _195  and  _196
REMARK   82  A    between atoms: _195  and  _198
REMARK   83  A    between atoms: _198  and  _199
REMARK   84  A    between atoms: _199  and  _200
REMARK   85  A    between atoms: _200  and  _201
REMARK   86  A    between atoms: _211  and  _212
REMARK   87  A    between atoms: _217  and  _219
REMARK   88  A    between atoms: _219  and  _220
REMARK   89  A    between atoms: _222  and  _224
REMARK   90  A    between atoms: _224  and  _225
REMARK   91  A    between atoms: _224  and  _227
REMARK   92  A    between atoms: _230  and  _232
REMARK   93  A    between atoms: _232  and  _233
REMARK   94  A    between atoms: _232  and  _235
REMARK   95  A    between atoms: _235  and  _236
REMARK   96  A    between atoms: _238  and  _240
REMARK   97  A    between atoms: _240  and  _241
REMARK   98  A    between atoms: _240  and  _243
REMARK   99  A    between atoms: _243  and  _244
REMARK  100  A    between atoms: _246  and  _248
REMARK  101  A    between atoms: _248  and  _249
REMARK  102  A    between atoms: _248  and  _251
REMARK  103  A    between atoms: _251  and  _252
REMARK  104  A    between atoms: _252  and  _253
REMARK  105  A    between atoms: _258  and  _260
REMARK  106  A    between atoms: _260  and  _261
REMARK  107  A    between atoms: _260  and  _263
REMARK  108  A    between atoms: _263  and  _264
REMARK  109  A    between atoms: _270  and  _272
REMARK  110  A    between atoms: _272  and  _273
REMARK  111  A    between atoms: _272  and  _275
REMARK  112  A    between atoms: _275  and  _276
REMARK  113  A    between atoms: _279  and  _281
REMARK  114  A    between atoms: _281  and  _282
REMARK  115  A    between atoms: _281  and  _284
REMARK  116  A    between atoms: _284  and  _285
REMARK  117  A    between atoms: _288  and  _290
REMARK  118  A    between atoms: _290  and  _291
REMARK  119  A    between atoms: _294  and  _296
REMARK  120  A    between atoms: _296  and  _297
REMARK  121  A    between atoms: _296  and  _299
REMARK  122  A    between atoms: _299  and  _300
REMARK  123  A    between atoms: _303  and  _305
REMARK  124  A    between atoms: _305  and  _306
REMARK  125  A    between atoms: _305  and  _308
REMARK  126  A    between atoms: _311  and  _313
REMARK  127  A    between atoms: _313  and  _314
REMARK  128  A    between atoms: _313  and  _316
REMARK  129  A    between atoms: _316  and  _317
REMARK  130  A    between atoms: _319  and  _321
REMARK  131  A    between atoms: _321  and  _322
REMARK  132  A    between atoms: _321  and  _324
REMARK  133  A    between atoms: _324  and  _325
REMARK  134  A    between atoms: _325  and  _326
REMARK  135  A    between atoms: _326  and  _327
REMARK  136  A    between atoms: _327  and  _328
REMARK  137  A    between atoms: _333  and  _334
REMARK  138  A    between atoms: _339  and  _341
REMARK  139  A    between atoms: _341  and  _342
REMARK  140  A    between atoms: _341  and  _344
REMARK  141  A    between atoms: _344  and  _345
REMARK  142  A    between atoms: _350  and  _351
REMARK  143  A    between atoms: _353  and  _355
REMARK  144  A    between atoms: _355  and  _356
REMARK  145  A    between atoms: _355  and  _358
REMARK  146  A    between atoms: _358  and  _359
REMARK  147  A    between atoms: _362  and  _364
REMARK  148  A    between atoms: _364  and  _365
REMARK  149  A    between atoms: _364  and  _367
REMARK  150  A    between atoms: _367  and  _368
REMARK  151  A    between atoms: _371  and  _373
REMARK  152  A    between atoms: _373  and  _374
REMARK  153  A    between atoms: _373  and  _376
REMARK  154  A    between atoms: _376  and  _377
REMARK  155  A    between atoms: _380  and  _382
REMARK  156  A    between atoms: _382  and  _383
REMARK  157  A    between atoms: _382  and  _385
REMARK  158  A    between atoms: _385  and  _386
REMARK  159  A    between atoms: _389  and  _391
REMARK  160  A    between atoms: _391  and  _392
REMARK  161  A    between atoms: _391  and  _394
REMARK  162  A    between atoms: _394  and  _395
REMARK  163  A    between atoms: _397  and  _399
REMARK  164  A    between atoms: _399  and  _400
REMARK  165  A    between atoms: _399  and  _402
REMARK  166  A    between atoms: _402  and  _403
REMARK  167  A    between atoms: _408  and  _409
REMARK  168  A    between atoms: _411  and  _413
REMARK  169  A    between atoms: _413  and  _414
REMARK  170  A    between atoms: _413  and  _416
REMARK  171  A    between atoms: _416  and  _417
REMARK  172  A    between atoms: _420  and  _422
REMARK  173  A    between atoms: _422  and  _423
REMARK  174  A    between atoms: _422  and  _425
REMARK  175  A    between atoms: _425  and  _426
REMARK  176  A    between atoms: _431  and  _433
REMARK  177  A    between atoms: _433  and  _434
REMARK  178  A    between atoms: _433  and  _436
REMARK  179  A    between atoms: _436  and  _437
REMARK  180  A    between atoms: _441  and  _442
REMARK  181  A    between atoms: _447  and  _449
REMARK  182  A    between atoms: _449  and  _450
REMARK  183  A    between atoms: _449  and  _452
REMARK  184  A    between atoms: _452  and  _453
REMARK  185  A    between atoms: _456  and  _458
REMARK  186  A    between atoms: _458  and  _459
REMARK  187  A    between atoms: _462  and  _464
REMARK  188  A    between atoms: _464  and  _465
REMARK  189  A    between atoms: _464  and  _467
REMARK  190  A    between atoms: _467  and  _468
REMARK  191  A    between atoms: _468  and  _469
REMARK  192  A    between atoms: _471  and  _473
REMARK  193  A    between atoms: _473  and  _474
REMARK  194  A    between atoms: _473  and  _476
REMARK  195  A    between atoms: _476  and  _477
REMARK  196  A    between atoms: _482  and  _484
REMARK  197  A    between atoms: _484  and  _485
REMARK  198  A    between atoms: _484  and  _487
REMARK  199  A    between atoms: _487  and  _488
REMARK  200  A    between atoms: _498  and  _500
REMARK  201  A    between atoms: _500  and  _501
REMARK  202  A    between atoms: _500  and  _503
REMARK  203  A    between atoms: _506  and  _508
REMARK  204  A    between atoms: _508  and  _509
REMARK  205  A    between atoms: _508  and  _511
REMARK  206  A    between atoms: _511  and  _512
REMARK  207  A    between atoms: _512  and  _513
REMARK  208  A    between atoms: _513  and  _514
REMARK  209  A    between atoms: _514  and  _515
REMARK  210  A    between atoms: _519  and  _521
REMARK  211  A    between atoms: _521  and  _522
REMARK  212  A    between atoms: _521  and  _524
REMARK  213  A    between atoms: _524  and  _525
REMARK  214  A    between atoms: _525  and  _526
REMARK  215  A    between atoms: _529  and  _531
REMARK  216  A    between atoms: _531  and  _532
REMARK  217  A    between atoms: _531  and  _534
REMARK  218  A    between atoms: _534  and  _535
REMARK  219  A    between atoms: _538  and  _540
REMARK  220  A    between atoms: _540  and  _541
REMARK  221  A    between atoms: _540  and  _543
REMARK  222  A    between atoms: _543  and  _544
REMARK  223  A    between atoms: _544  and  _545
REMARK  224  A    between atoms: _545  and  _546
REMARK  225  A    between atoms: _555  and  _557
REMARK  226  A    between atoms: _557  and  _558
REMARK  227  A    between atoms: _557  and  _560
REMARK  228  A    between atoms: _560  and  _561
REMARK  229  A    between atoms: _564  and  _566
REMARK  230  A    between atoms: _566  and  _567
REMARK  231  A    between atoms: _566  and  _569
REMARK  232  A    between atoms: _569  and  _570
REMARK  233  A    between atoms: _575  and  _577
REMARK  234  A    between atoms: _577  and  _578
REMARK  235  A    between atoms: _577  and  _580
REMARK  236  A    between atoms: _580  and  _581
REMARK  237  A    between atoms: _581  and  _582
REMARK  238  A    between atoms: _582  and  _583
REMARK  239  A    between atoms: _592  and  _594
REMARK  240  A    between atoms: _594  and  _595
REMARK  241  A    between atoms: _594  and  _597
REMARK  242  A    between atoms: _597  and  _598
REMARK  243  A    between atoms: _598  and  _599
REMARK  244  A    between atoms: _601  and  _603
REMARK  245  A    between atoms: _603  and  _604
REMARK  246  A    between atoms: _603  and  _606
REMARK  247  A    between atoms: _606  and  _607
REMARK  248  A    between atoms: _607  and  _608
REMARK  249  A    between atoms: _610  and  _612
REMARK  250  A    between atoms: _612  and  _613
REMARK  251  A    between atoms: _612  and  _615
REMARK  252  A    between atoms: _615  and  _616
REMARK  253  A    between atoms: _616  and  _617
REMARK  254  A    between atoms: _617  and  _618
REMARK  255  A    between atoms: _618  and  _619
REMARK  256  A    between atoms: _623  and  _625
REMARK  257  A    between atoms: _625  and  _626
REMARK  258  A    between atoms: _625  and  _628
REMARK  259  A    between atoms: _628  and  _629
REMARK                            x       y       z     vdW  Elec       q    Type
REMARK                         _______ _______ _______ _____ _____    ______ ____
ROOT
ATOM      1  CA  LYS A   4      46.877  12.214  29.900  0.00  0.00    +0.149 C 
ENDROOT
BRANCH   1   2
ATOM      2  C   LYS A   4      47.498  13.582  30.192  0.00  0.00    +0.244 C 
ATOM      3  N   PRO A   5      48.157  13.773  31.357  0.00  0.00    -0.272 N 
ATOM      4  CD  PRO A   5      48.197  12.941  32.571  0.00  0.00    +0.094 C 
ATOM      5  CG  PRO A   5      48.312  13.995  33.672  0.00  0.00    +0.024 C 
ATOM      6  CB  PRO A   5      49.258  14.995  33.060  0.00  0.00    +0.031 C 
ATOM      7  CA  PRO A   5      48.736  15.100  31.615  0.00  0.00    +0.152 C 
ATOM      8  O   LYS A   4      47.433  14.455  29.346  0.00  0.00    -0.273 OA
BRANCH   7   9
ATOM      9  C   PRO A   5      49.802  15.563  30.634  0.00  0.00    +0.241 C 
ATOM     10  O   PRO A   5      50.033  16.768  30.502  0.00  0.00    -0.273 OA
ATOM     11  N   TYR A   6      50.439  14.634  29.927  0.00  0.00    -0.297 N 
ATOM     12  H   TYR A   6      50.211  13.627  30.053  0.00  0.00    +0.150 HD
BRANCH  11  13
ATOM     13  CA  TYR A   6      51.465  15.049  28.970  0.00  0.00    +0.153 C 
BRANCH  13  14
ATOM     14  C   TYR A   6      50.846  15.678  27.738  0.00  0.00    +0.241 C 
ATOM     15  N   ILE A   7      49.582  15.355  27.460  0.00  0.00    -0.298 N 
ATOM     16  H   ILE A   7      49.081  14.669  28.060  0.00  0.00    +0.150 HD
ATOM     17  O   TYR A   6      51.492  16.475  27.065  0.00  0.00    -0.273 OA
BRANCH  15  18
ATOM     18  CA  ILE A   7      48.897  15.957  26.319  0.00  0.00    +0.137 C 
BRANCH  18  19
ATOM     19  CB  ILE A   7      47.551  15.240  26.046  0.00  0.00    +0.026 C 
ATOM     20  CG2 ILE A   7      46.722  15.986  24.965  0.00  0.00    +0.002 C 
BRANCH  19  21
ATOM     21  CG1 ILE A   7      47.836  13.784  25.682  0.00  0.00    +0.002 C 
ATOM     22  CD1 ILE A   7      48.799  13.550  24.496  0.00  0.00    +0.000 C 
ENDBRANCH  19  21
ENDBRANCH  18  19
BRANCH  18  23
ATOM     23  C   ILE A   7      48.644  17.427  26.686  0.00  0.00    +0.227 C 
ATOM     24  O   ILE A   7      48.684  18.294  25.829  0.00  0.00    -0.286 OA
ENDBRANCH  18  23
ENDBRANCH  15  18
ENDBRANCH  13  14
BRANCH  13  25
ATOM     25  CB  TYR A   6      52.395  13.876  28.584  0.00  0.00    +0.055 C 
BRANCH  25  26
ATOM     26  CG  TYR A   6      53.311  13.479  29.731  0.00  0.00    -0.020 A 
ATOM     27  CD2 TYR A   6      52.933  12.489  30.647  0.00  0.00    -0.001 A 
ATOM     28  CE2 TYR A   6      53.775  12.120  31.706  0.00  0.00    +0.036 A 
ATOM     29  CZ  TYR A   6      55.016  12.730  31.850  0.00  0.00    +0.134 A 
ATOM     30  CE1 TYR A   6      55.411  13.718  30.956  0.00  0.00    +0.036 A 
ATOM     31  CD1 TYR A   6      54.562  14.095  29.907  0.00  0.00    -0.001 A 
BRANCH  29  32
ATOM     32  OH  TYR A   6      55.882  12.319  32.856  0.00  0.00    -0.506 OA
ATOM     33  HH  TYR A   6      55.446  11.615  33.398  0.00  0.00    +0.292 HD
ENDBRANCH  29  32
ENDBRANCH  25  26
ENDBRANCH  13  25
ENDBRANCH  11  13
ENDBRANCH   7   9
ENDBRANCH   1   2
BRANCH   1  35
ATOM     34  C   SER A   3      48.912  10.905  30.097  0.00  0.00    +0.243 C 
ATOM     35  N   LYS A   4      47.618  11.065  30.364  0.00  0.00    -0.297 N 
ATOM     36  H   LYS A   4      47.125  10.340  30.924  0.00  0.00    +0.150 HD
ATOM     37  O   SER A   3      49.601  11.742  29.503  0.00  0.00    -0.273 OA
BRANCH  34  38
ATOM     38  CA  SER A   3      49.518   9.611  30.612  0.00  0.00    +0.178 C 
BRANCH  38  40
ATOM     39  C   VAL A   2      48.077   8.170  29.256  0.00  0.00    +0.241 C 
ATOM     40  N   SER A   3      48.641   8.458  30.428  0.00  0.00    -0.295 N 
ATOM     41  H   SER A   3      48.450   7.839  31.242  0.00  0.00    +0.150 HD
ATOM     42  O   VAL A   2      48.172   8.895  28.254  0.00  0.00    -0.273 OA
BRANCH  39  43
ATOM     43  CA  VAL A   2      47.237   6.890  29.224  0.00  0.00    +0.148 C 
BRANCH  43  46
ATOM     44  C   LEU A   1      45.178   7.402  28.085  0.00  0.00    +0.238 C 
ATOM     45  O   LEU A   1      44.707   7.873  29.127  0.00  0.00    -0.274 OA
ATOM     46  N   VAL A   2      46.396   6.887  28.034  0.00  0.00    -0.297 N 
ATOM     47  H   VAL A   2      46.753   6.481  27.146  0.00  0.00    +0.150 HD
BRANCH  44  48
ATOM     48  CA  LEU A   1      44.364   7.359  26.795  0.00  0.00    +0.145 C 
BRANCH  48  49
ATOM     49  N   LEU A   1      43.219   6.471  26.994  0.00  0.00    -0.238 NA
ATOM     50  H   LEU A   1      42.610   6.605  27.826  0.00  0.00    +0.142 HD
ENDBRANCH  48  49
BRANCH  48  51
ATOM     51  CB  LEU A   1      43.902   8.767  26.420  0.00  0.00    +0.026 C 
BRANCH  51  52
ATOM     52  CG  LEU A   1      45.006   9.821  26.263  0.00  0.00    +0.002 C 
ATOM     53  CD2 LEU A   1      44.396  11.188  25.945  0.00  0.00    +0.000 C 
ATOM     54  CD1 LEU A   1      45.971   9.396  25.139  0.00  0.00    +0.000 C 
ENDBRANCH  51  52
ENDBRANCH  48  51
ENDBRANCH  44  48
ENDBRANCH  43  46
BRANCH  43  55
ATOM     55  CB  VAL A   2      48.211   5.665  29.243  0.00  0.00    +0.027 C 
ATOM     56  CG2 VAL A   2      47.420   4.353  29.264  0.00  0.00    +0.002 C 
ATOM     57  CG1 VAL A   2      49.141   5.723  28.040  0.00  0.00    +0.002 C 
ENDBRANCH  43  55
ENDBRANCH  39  43
ENDBRANCH  38  40
BRANCH  38  58
ATOM     58  CB  SER A   3      50.847   9.335  29.901  0.00  0.00    +0.166 C 
BRANCH  58  59
ATOM     59  OG  SER A   3      51.549   8.262  30.535  0.00  0.00    -0.380 OA
ATOM     60  H   SER A   3      52.403   8.101  30.060  0.00  0.00    +0.211 HD
ENDBRANCH  58  59
ENDBRANCH  38  58
ENDBRANCH  34  38
ENDBRANCH   1  35
BRANCH   1  61
ATOM     61  CB  LYS A   4      45.444  12.130  30.429  0.00  0.00    +0.029 C 
BRANCH  61  62
ATOM     62  CG  LYS A   4      44.512  13.159  29.831  0.00  0.00    +0.000 C 
BRANCH  62  63
ATOM     63  CD  LYS A   4      43.052  12.772  30.071  0.00  0.00    -0.024 C 
BRANCH  63  64
ATOM     64  CE  LYS A   4      42.276  13.895  30.745  0.00  0.00    -0.086 C 
BRANCH  64  65
ATOM     65  NZ  LYS A   4      40.813  13.566  30.845  0.00  0.00    +0.380 N 
ATOM     66  HZ1 LYS A   4      40.692  12.698  31.404  0.00  0.00    -0.089 HD
ATOM     67  HZ2 LYS A   4      40.313  14.351  31.309  0.00  0.00    -0.089 HD
ATOM     68  HZ3 LYS A   4      40.425  13.422  29.891  0.00  0.00    -0.089 HD
ENDBRANCH  64  65
ENDBRANCH  63  64
ENDBRANCH  62  63
ENDBRANCH  61  62
ENDBRANCH   1  61
TORSDOF 28
REMARK  Name = ../refined-set-2016/2pq9/2pq9_pocket.pdb
REMARK  259 active torsions:
REMARK  status: ('A' for Active; 'I' for Inactive)
REMARK    1  A    between atoms: _1  and  _3
REMARK    2  A    between atoms: _3  and  _4
REMARK    3  A    between atoms: _3  and  _6
REMARK    4  A    between atoms: _6  and  _7
REMARK    5  A    between atoms: _9  and  _11
REMARK    6  A    between atoms: _11  and  _12
REMARK    7  A    between atoms: _11  and  _14
REMARK    8  A    between atoms: _14  and  _15
REMARK    9  A    between atoms: _15  and  _16
REMARK   10  A    between atoms: _16  and  _17
REMARK   11  A    between atoms: _17  and  _18
REMARK   12  A    between atoms: _22  and  _24
REMARK   13  A    between atoms: _24  and  _25
REMARK   14  A    between atoms: _24  and  _27
REMARK   15  A    between atoms: _27  and  _28
REMARK   16  A    between atoms: _30  and  _32
REMARK   17  A    between atoms: _32  and  _33
REMARK   18  A    between atoms: _32  and  _35
REMARK   19  A    between atoms: _38  and  _40
REMARK   20  A    between atoms: _40  and  _41
REMARK   21  A    between atoms: _40  and  _43
REMARK   22  A    between atoms: _43  and  _44
REMARK   23  A    between atoms: _46  and  _48
REMARK   24  A    between atoms: _48  and  _49
REMARK   25  A    between atoms: _48  and  _51
REMARK   26  A    between atoms: _51  and  _52
REMARK   27  A    between atoms: _57  and  _59
REMARK   28  A    between atoms: _59  and  _60
REMARK   29  A    between atoms: _59  and  _62
REMARK   30  A    between atoms: _62  and  _63
REMARK   31  A    between atoms: _63  and  _64
REMARK   32  A    between atoms: _64  and  _65
REMARK   33  A    between atoms: _74  and  _76
REMARK   34  A    between atoms: _76  and  _77
REMARK   35  A    between atoms: _76  and  _79
REMARK   36  A    between atoms: _79  and  _80
REMARK   37  A    between atoms: _83  and  _85
REMARK   38  A    between atoms: _85  and  _86
REMARK   39  A    between atoms: _85  and  _88
REMARK   40  A    between atoms: _88  and  _89
REMARK   41  A    between atoms: _92  and  _94
REMARK   42  A    between atoms: _94  and  _95
REMARK   43  A    between atoms: _97  and  _99
REMARK   44  A    between atoms: _99  and  _100
REMARK   45  A    between atoms: _99  and  _102
REMARK   46  A    between atoms: _102  and  _103
REMARK   47  A    between atoms: _108  and  _110
REMARK   48  A    between atoms: _110  and  _111
REMARK   49  A    between atoms: _114  and  _116
REMARK   50  A    between atoms: _116  and  _117
REMARK   51  A    between atoms: _119  and  _121
REMARK   52  A    between atoms: _121  and  _122
REMARK   53  A    between atoms: _121  and  _124
REMARK   54  A    between atoms: _124  and  _125
REMARK   55  A    between atoms: _128  and  _130
REMARK   56  A    between atoms: _130  and  _131
REMARK   57  A    between atoms: _134  and  _136
REMARK   58  A    between atoms: _136  and  _137
REMARK   59  A    between atoms: _136  and  _139
REMARK   60  A    between atoms: _139  and  _140
REMARK   61  A    between atoms: _140  and  _141
REMARK   62  A    between atoms: _143  and  _145
REMARK   63  A    between atoms: _145  and  _146
REMARK   64  A    between atoms: _145  and  _148
REMARK   65  A    between atoms: _148  and  _149
REMARK   66  A    between atoms: _149  and  _150
REMARK   67  A    between atoms: _150  and  _151
REMARK   68  A    between atoms: _161  and  _162
REMARK   69  A    between atoms: _167  and  _169
REMARK   70  A    between atoms: _169  and  _170
REMARK   71  A    between atoms: _169  and  _172
REMARK   72  A    between atoms: _172  and  _173
REMARK   73  A    between atoms: _173  and  _174
REMARK   74  A    between atoms: _174  and  _175
REMARK   75  A    between atoms: _184  and  _186
REMARK   76  A    between atoms: _186  and  _187
REMARK   77  A    between atoms: _186  and  _189
REMARK   78  A    between atoms: _189  and  _190
REMARK   79  A    between atoms: _190  and  _191
REMARK   80  A    between atoms: _193  and  _195
REMARK   81  A    between atoms: _195  and  _196
REMARK   82  A    between atoms: _195  and  _198
REMARK   83  A    between atoms: _198  and  _199
REMARK   84  A    between atoms: _199  and  _200
REMARK   85  A    between atoms: _200  and  _201
REMARK   86  A    between atoms: _211  and  _212
REMARK   87  A    between atoms: _217  and  _219
REMARK   88  A    between atoms: _219  and  _220
REMARK   89  A    between atoms: _222  and  _224
REMARK   90  A    between atoms: _224  and  _225
REMARK   91  A    between atoms: _224  and  _227
REMARK   92  A    between atoms: _230  and  _232
REMARK   93  A    between atoms: _232  and  _233
REMARK   94  A    between atoms: _232  and  _235
REMARK   95  A    between atoms: _235  and  _236
REMARK   96  A    between atoms: _238  and  _240
REMARK   97  A    between atoms: _240  and  _241
REMARK   98  A    between atoms: _240  and  _243
REMARK   99  A    between atoms: _243  and  _244
REMARK  100  A    between atoms: _246  and  _248
REMARK  101  A    between atoms: _248  and  _249
REMARK  102  A    between atoms: _248  and  _251
REMARK  103  A    between atoms: _251  and  _252
REMARK  104  A    between atoms: _252  and  _253
REMARK  105  A    between atoms: _258  and  _260
REMARK  106  A    between atoms: _260  and  _261
REMARK  107  A    between atoms: _260  and  _263
REMARK  108  A    between atoms: _263  and  _264
REMARK  109  A    between atoms: _270  and  _272
REMARK  110  A    between atoms: _272  and  _273
REMARK  111  A    between atoms: _272  and  _275
REMARK  112  A    between atoms: _275  and  _276
REMARK  113  A    between atoms: _279  and  _281
REMARK  114  A    between atoms: _281  and  _282
REMARK  115  A    between atoms: _281  and  _284
REMARK  116  A    between atoms: _284  and  _285
REMARK  117  A    between atoms: _288  and  _290
REMARK  118  A    between atoms: _290  and  _291
REMARK  119  A    between atoms: _294  and  _296
REMARK  120  A    between atoms: _296  and  _297
REMARK  121  A    between atoms: _296  and  _299
REMARK  122  A    between atoms: _299  and  _300
REMARK  123  A    between atoms: _303  and  _305
REMARK  124  A    between atoms: _305  and  _306
REMARK  125  A    between atoms: _305  and  _308
REMARK  126  A    between atoms: _311  and  _313
REMARK  127  A    between atoms: _313  and  _314
REMARK  128  A    between atoms: _313  and  _316
REMARK  129  A    between atoms: _316  and  _317
REMARK  130  A    between atoms: _319  and  _321
REMARK  131  A    between atoms: _321  and  _322
REMARK  132  A    between atoms: _321  and  _324
REMARK  133  A    between atoms: _324  and  _325
REMARK  134  A    between atoms: _325  and  _326
REMARK  135  A    between atoms: _326  and  _327
REMARK  136  A    between atoms: _327  and  _328
REMARK  137  A    between atoms: _333  and  _334
REMARK  138  A    between atoms: _339  and  _341
REMARK  139  A    between atoms: _341  and  _342
REMARK  140  A    between atoms: _341  and  _344
REMARK  141  A    between atoms: _344  and  _345
REMARK  142  A    between atoms: _350  and  _351
REMARK  143  A    between atoms: _353  and  _355
REMARK  144  A    between atoms: _355  and  _356
REMARK  145  A    between atoms: _355  and  _358
REMARK  146  A    between atoms: _358  and  _359
REMARK  147  A    between atoms: _362  and  _364
REMARK  148  A    between atoms: _364  and  _365
REMARK  149  A    between atoms: _364  and  _367
REMARK  150  A    between atoms: _367  and  _368
REMARK  151  A    between atoms: _371  and  _373
REMARK  152  A    between atoms: _373  and  _374
REMARK  153  A    between atoms: _373  and  _376
REMARK  154  A    between atoms: _376  and  _377
REMARK  155  A    between atoms: _380  and  _382
REMARK  156  A    between atoms: _382  and  _383
REMARK  157  A    between atoms: _382  and  _385
REMARK  158  A    between atoms: _385  and  _386
REMARK  159  A    between atoms: _389  and  _391
REMARK  160  A    between atoms: _391  and  _392
REMARK  161  A    between atoms: _391  and  _394
REMARK  162  A    between atoms: _394  and  _395
REMARK  163  A    between atoms: _397  and  _399
REMARK  164  A    between atoms: _399  and  _400
REMARK  165  A    between atoms: _399  and  _402
REMARK  166  A    between atoms: _402  and  _403
REMARK  167  A    between atoms: _408  and  _409
REMARK  168  A    between atoms: _411  and  _413
REMARK  169  A    between atoms: _413  and  _414
REMARK  170  A    between atoms: _413  and  _416
REMARK  171  A    between atoms: _416  and  _417
REMARK  172  A    between atoms: _420  and  _422
REMARK  173  A    between atoms: _422  and  _423
REMARK  174  A    between atoms: _422  and  _425
REMARK  175  A    between atoms: _425  and  _426
REMARK  176  A    between atoms: _431  and  _433
REMARK  177  A    between atoms: _433  and  _434
REMARK  178  A    between atoms: _433  and  _436
REMARK  179  A    between atoms: _436  and  _437
REMARK  180  A    between atoms: _441  and  _442
REMARK  181  A    between atoms: _447  and  _449
REMARK  182  A    between atoms: _449  and  _450
REMARK  183  A    between atoms: _449  and  _452
REMARK  184  A    between atoms: _452  and  _453
REMARK  185  A    between atoms: _456  and  _458
REMARK  186  A    between atoms: _458  and  _459
REMARK  187  A    between atoms: _462  and  _464
REMARK  188  A    between atoms: _464  and  _465
REMARK  189  A    between atoms: _464  and  _467
REMARK  190  A    between atoms: _467  and  _468
REMARK  191  A    between atoms: _468  and  _469
REMARK  192  A    between atoms: _471  and  _473
REMARK  193  A    between atoms: _473  and  _474
REMARK  194  A    between atoms: _473  and  _476
REMARK  195  A    between atoms: _476  and  _477
REMARK  196  A    between atoms: _482  and  _484
REMARK  197  A    between atoms: _484  and  _485
REMARK  198  A    between atoms: _484  and  _487
REMARK  199  A    between atoms: _487  and  _488
REMARK  200  A    between atoms: _498  and  _500
REMARK  201  A    between atoms: _500  and  _501
REMARK  202  A    between atoms: _500  and  _503
REMARK  203  A    between atoms: _506  and  _508
REMARK  204  A    between atoms: _508  and  _509
REMARK  205  A    between atoms: _508  and  _511
REMARK  206  A    between atoms: _511  and  _512
REMARK  207  A    between atoms: _512  and  _513
REMARK  208  A    between atoms: _513  and  _514
REMARK  209  A    between atoms: _514  and  _515
REMARK  210  A    between atoms: _519  and  _521
REMARK  211  A    between atoms: _521  and  _522
REMARK  212  A    between atoms: _521  and  _524
REMARK  213  A    between atoms: _524  and  _525
REMARK  214  A    between atoms: _525  and  _526
REMARK  215  A    between atoms: _529  and  _531
REMARK  216  A    between atoms: _531  and  _532
REMARK  217  A    between atoms: _531  and  _534
REMARK  218  A    between atoms: _534  and  _535
REMARK  219  A    between atoms: _538  and  _540
REMARK  220  A    between atoms: _540  and  _541
REMARK  221  A    between atoms: _540  and  _543
REMARK  222  A    between atoms: _543  and  _544
REMARK  223  A    between atoms: _544  and  _545
REMARK  224  A    between atoms: _545  and  _546
REMARK  225  A    between atoms: _555  and  _557
REMARK  226  A    between atoms: _557  and  _558
REMARK  227  A    between atoms: _557  and  _560
REMARK  228  A    between atoms: _560  and  _561
REMARK  229  A    between atoms: _564  and  _566
REMARK  230  A    between atoms: _566  and  _567
REMARK  231  A    between atoms: _566  and  _569
REMARK  232  A    between atoms: _569  and  _570
REMARK  233  A    between atoms: _575  and  _577
REMARK  234  A    between atoms: _577  and  _578
REMARK  235  A    between atoms: _577  and  _580
REMARK  236  A    between atoms: _580  and  _581
REMARK  237  A    between atoms: _581  and  _582
REMARK  238  A    between atoms: _582  and  _583
REMARK  239  A    between atoms: _592  and  _594
REMARK  240  A    between atoms: _594  and  _595
REMARK  241  A    between atoms: _594  and  _597
REMARK  242  A    between atoms: _597  and  _598
REMARK  243  A    between atoms: _598  and  _599
REMARK  244  A    between atoms: _601  and  _603
REMARK  245  A    between atoms: _603  and  _604
REMARK  246  A    between atoms: _603  and  _606
REMARK  247  A    between atoms: _606  and  _607
REMARK  248  A    between atoms: _607  and  _608
REMARK  249  A    between atoms: _610  and  _612
REMARK  250  A    between atoms: _612  and  _613
REMARK  251  A    between atoms: _612  and  _615
REMARK  252  A    between atoms: _615  and  _616
REMARK  253  A    between atoms: _616  and  _617
REMARK  254  A    between atoms: _617  and  _618
REMARK  255  A    between atoms: _618  and  _619
REMARK  256  A    between atoms: _623  and  _625
REMARK  257  A    between atoms: _625  and  _626
REMARK  258  A    between atoms: _625  and  _628
REMARK  259  A    between atoms: _628  and  _629
REMARK                            x       y       z     vdW  Elec       q    Type
REMARK                         _______ _______ _______ _____ _____    ______ ____
ROOT
ATOM      1  C   ILE A   1      51.997  20.321  26.732  0.00  0.00    +0.238 C 
ATOM      2  O   ILE A   1      52.363  21.446  26.378  0.00  0.00    -0.274 OA
ATOM      3  N   THR A   2      51.700  19.361  25.862  0.00  0.00    -0.296 N 
ATOM      4  H   THR A   2      51.410  18.426  26.213  0.00  0.00    +0.150 HD
ENDROOT
BRANCH   1   5
ATOM      5  CA  ILE A   1      51.877  19.946  28.221  0.00  0.00    +0.145 C 
BRANCH   5   6
ATOM      6  N   ILE A   1      50.610  19.258  28.428  0.00  0.00    -0.238 NA
ATOM      7  H   ILE A   1      50.602  18.271  28.757  0.00  0.00    +0.142 HD
ENDBRANCH   5   6
BRANCH   5   8
ATOM      8  CB  ILE A   1      53.071  19.031  28.599  0.00  0.00    +0.025 C 
ATOM      9  CG2 ILE A   1      54.388  19.707  28.212  0.00  0.00    +0.002 C 
BRANCH   8  10
ATOM     10  CG1 ILE A   1      53.041  18.710  30.090  0.00  0.00    +0.002 C 
ATOM     11  CD1 ILE A   1      54.172  17.789  30.546  0.00  0.00    +0.000 C 
ENDBRANCH   8  10
ENDBRANCH   5   8
ENDBRANCH   1   5
BRANCH   3  12
ATOM     12  CA  THR A   2      51.773  19.594  24.427  0.00  0.00    +0.164 C 
BRANCH  12  13
ATOM     13  C   THR A   2      50.869  20.714  23.962  0.00  0.00    +0.229 C 
ATOM     14  O   THR A   2      51.290  21.578  23.200  0.00  0.00    -0.286 OA
ENDBRANCH  12  13
BRANCH  12  15
ATOM     15  CB  THR A   2      51.412  18.328  23.653  0.00  0.00    +0.136 C 
ATOM     16  CG2 THR A   2      51.532  18.559  22.140  0.00  0.00    +0.034 C 
BRANCH  15  17
ATOM     17  OG1 THR A   2      52.339  17.296  24.040  0.00  0.00    -0.382 OA
ATOM     18  HG1 THR A   2      52.126  16.462  23.551  0.00  0.00    +0.210 HD
ENDBRANCH  15  17
ENDBRANCH  12  15
ENDBRANCH   3  12
TORSDOF 8
REMARK  Name = ../refined-set-2016/2pq9/2pq9_pocket.pdb
REMARK  259 active torsions:
REMARK  status: ('A' for Active; 'I' for Inactive)
REMARK    1  A    between atoms: _1  and  _3
REMARK    2  A    between atoms: _3  and  _4
REMARK    3  A    between atoms: _3  and  _6
REMARK    4  A    between atoms: _6  and  _7
REMARK    5  A    between atoms: _9  and  _11
REMARK    6  A    between atoms: _11  and  _12
REMARK    7  A    between atoms: _11  and  _14
REMARK    8  A    between atoms: _14  and  _15
REMARK    9  A    between atoms: _15  and  _16
REMARK   10  A    between atoms: _16  and  _17
REMARK   11  A    between atoms: _17  and  _18
REMARK   12  A    between atoms: _22  and  _24
REMARK   13  A    between atoms: _24  and  _25
REMARK   14  A    between atoms: _24  and  _27
REMARK   15  A    between atoms: _27  and  _28
REMARK   16  A    between atoms: _30  and  _32
REMARK   17  A    between atoms: _32  and  _33
REMARK   18  A    between atoms: _32  and  _35
REMARK   19  A    between atoms: _38  and  _40
REMARK   20  A    between atoms: _40  and  _41
REMARK   21  A    between atoms: _40  and  _43
REMARK   22  A    between atoms: _43  and  _44
REMARK   23  A    between atoms: _46  and  _48
REMARK   24  A    between atoms: _48  and  _49
REMARK   25  A    between atoms: _48  and  _51
REMARK   26  A    between atoms: _51  and  _52
REMARK   27  A    between atoms: _57  and  _59
REMARK   28  A    between atoms: _59  and  _60
REMARK   29  A    between atoms: _59  and  _62
REMARK   30  A    between atoms: _62  and  _63
REMARK   31  A    between atoms: _63  and  _64
REMARK   32  A    between atoms: _64  and  _65
REMARK   33  A    between atoms: _74  and  _76
REMARK   34  A    between atoms: _76  and  _77
REMARK   35  A    between atoms: _76  and  _79
REMARK   36  A    between atoms: _79  and  _80
REMARK   37  A    between atoms: _83  and  _85
REMARK   38  A    between atoms: _85  and  _86
REMARK   39  A    between atoms: _85  and  _88
REMARK   40  A    between atoms: _88  and  _89
REMARK   41  A    between atoms: _92  and  _94
REMARK   42  A    between atoms: _94  and  _95
REMARK   43  A    between atoms: _97  and  _99
REMARK   44  A    between atoms: _99  and  _100
REMARK   45  A    between atoms: _99  and  _102
REMARK   46  A    between atoms: _102  and  _103
REMARK   47  A    between atoms: _108  and  _110
REMARK   48  A    between atoms: _110  and  _111
REMARK   49  A    between atoms: _114  and  _116
REMARK   50  A    between atoms: _116  and  _117
REMARK   51  A    between atoms: _119  and  _121
REMARK   52  A    between atoms: _121  and  _122
REMARK   53  A    between atoms: _121  and  _124
REMARK   54  A    between atoms: _124  and  _125
REMARK   55  A    between atoms: _128  and  _130
REMARK   56  A    between atoms: _130  and  _131
REMARK   57  A    between atoms: _134  and  _136
REMARK   58  A    between atoms: _136  and  _137
REMARK   59  A    between atoms: _136  and  _139
REMARK   60  A    between atoms: _139  and  _140
REMARK   61  A    between atoms: _140  and  _141
REMARK   62  A    between atoms: _143  and  _145
REMARK   63  A    between atoms: _145  and  _146
REMARK   64  A    between atoms: _145  and  _148
REMARK   65  A    between atoms: _148  and  _149
REMARK   66  A    between atoms: _149  and  _150
REMARK   67  A    between atoms: _150  and  _151
REMARK   68  A    between atoms: _161  and  _162
REMARK   69  A    between atoms: _167  and  _169
REMARK   70  A    between atoms: _169  and  _170
REMARK   71  A    between atoms: _169  and  _172
REMARK   72  A    between atoms: _172  and  _173
REMARK   73  A    between atoms: _173  and  _174
REMARK   74  A    between atoms: _174  and  _175
REMARK   75  A    between atoms: _184  and  _186
REMARK   76  A    between atoms: _186  and  _187
REMARK   77  A    between atoms: _186  and  _189
REMARK   78  A    between atoms: _189  and  _190
REMARK   79  A    between atoms: _190  and  _191
REMARK   80  A    between atoms: _193  and  _195
REMARK   81  A    between atoms: _195  and  _196
REMARK   82  A    between atoms: _195  and  _198
REMARK   83  A    between atoms: _198  and  _199
REMARK   84  A    between atoms: _199  and  _200
REMARK   85  A    between atoms: _200  and  _201
REMARK   86  A    between atoms: _211  and  _212
REMARK   87  A    between atoms: _217  and  _219
REMARK   88  A    between atoms: _219  and  _220
REMARK   89  A    between atoms: _222  and  _224
REMARK   90  A    between atoms: _224  and  _225
REMARK   91  A    between atoms: _224  and  _227
REMARK   92  A    between atoms: _230  and  _232
REMARK   93  A    between atoms: _232  and  _233
REMARK   94  A    between atoms: _232  and  _235
REMARK   95  A    between atoms: _235  and  _236
REMARK   96  A    between atoms: _238  and  _240
REMARK   97  A    between atoms: _240  and  _241
REMARK   98  A    between atoms: _240  and  _243
REMARK   99  A    between atoms: _243  and  _244
REMARK  100  A    between atoms: _246  and  _248
REMARK  101  A    between atoms: _248  and  _249
REMARK  102  A    between atoms: _248  and  _251
REMARK  103  A    between atoms: _251  and  _252
REMARK  104  A    between atoms: _252  and  _253
REMARK  105  A    between atoms: _258  and  _260
REMARK  106  A    between atoms: _260  and  _261
REMARK  107  A    between atoms: _260  and  _263
REMARK  108  A    between atoms: _263  and  _264
REMARK  109  A    between atoms: _270  and  _272
REMARK  110  A    between atoms: _272  and  _273
REMARK  111  A    between atoms: _272  and  _275
REMARK  112  A    between atoms: _275  and  _276
REMARK  113  A    between atoms: _279  and  _281
REMARK  114  A    between atoms: _281  and  _282
REMARK  115  A    between atoms: _281  and  _284
REMARK  116  A    between atoms: _284  and  _285
REMARK  117  A    between atoms: _288  and  _290
REMARK  118  A    between atoms: _290  and  _291
REMARK  119  A    between atoms: _294  and  _296
REMARK  120  A    between atoms: _296  and  _297
REMARK  121  A    between atoms: _296  and  _299
REMARK  122  A    between atoms: _299  and  _300
REMARK  123  A    between atoms: _303  and  _305
REMARK  124  A    between atoms: _305  and  _306
REMARK  125  A    between atoms: _305  and  _308
REMARK  126  A    between atoms: _311  and  _313
REMARK  127  A    between atoms: _313  and  _314
REMARK  128  A    between atoms: _313  and  _316
REMARK  129  A    between atoms: _316  and  _317
REMARK  130  A    between atoms: _319  and  _321
REMARK  131  A    between atoms: _321  and  _322
REMARK  132  A    between atoms: _321  and  _324
REMARK  133  A    between atoms: _324  and  _325
REMARK  134  A    between atoms: _325  and  _326
REMARK  135  A    between atoms: _326  and  _327
REMARK  136  A    between atoms: _327  and  _328
REMARK  137  A    between atoms: _333  and  _334
REMARK  138  A    between atoms: _339  and  _341
REMARK  139  A    between atoms: _341  and  _342
REMARK  140  A    between atoms: _341  and  _344
REMARK  141  A    between atoms: _344  and  _345
REMARK  142  A    between atoms: _350  and  _351
REMARK  143  A    between atoms: _353  and  _355
REMARK  144  A    between atoms: _355  and  _356
REMARK  145  A    between atoms: _355  and  _358
REMARK  146  A    between atoms: _358  and  _359
REMARK  147  A    between atoms: _362  and  _364
REMARK  148  A    between atoms: _364  and  _365
REMARK  149  A    between atoms: _364  and  _367
REMARK  150  A    between atoms: _367  and  _368
REMARK  151  A    between atoms: _371  and  _373
REMARK  152  A    between atoms: _373  and  _374
REMARK  153  A    between atoms: _373  and  _376
REMARK  154  A    between atoms: _376  and  _377
REMARK  155  A    between atoms: _380  and  _382
REMARK  156  A    between atoms: _382  and  _383
REMARK  157  A    between atoms: _382  and  _385
REMARK  158  A    between atoms: _385  and  _386
REMARK  159  A    between atoms: _389  and  _391
REMARK  160  A    between atoms: _391  and  _392
REMARK  161  A    between atoms: _391  and  _394
REMARK  162  A    between atoms: _394  and  _395
REMARK  163  A    between atoms: _397  and  _399
REMARK  164  A    between atoms: _399  and  _400
REMARK  165  A    between atoms: _399  and  _402
REMARK  166  A    between atoms: _402  and  _403
REMARK  167  A    between atoms: _408  and  _409
REMARK  168  A    between atoms: _411  and  _413
REMARK  169  A    between atoms: _413  and  _414
REMARK  170  A    between atoms: _413  and  _416
REMARK  171  A    between atoms: _416  and  _417
REMARK  172  A    between atoms: _420  and  _422
REMARK  173  A    between atoms: _422  and  _423
REMARK  174  A    between atoms: _422  and  _425
REMARK  175  A    between atoms: _425  and  _426
REMARK  176  A    between atoms: _431  and  _433
REMARK  177  A    between atoms: _433  and  _434
REMARK  178  A    between atoms: _433  and  _436
REMARK  179  A    between atoms: _436  and  _437
REMARK  180  A    between atoms: _441  and  _442
REMARK  181  A    between atoms: _447  and  _449
REMARK  182  A    between atoms: _449  and  _450
REMARK  183  A    between atoms: _449  and  _452
REMARK  184  A    between atoms: _452  and  _453
REMARK  185  A    between atoms: _456  and  _458
REMARK  186  A    between atoms: _458  and  _459
REMARK  187  A    between atoms: _462  and  _464
REMARK  188  A    between atoms: _464  and  _465
REMARK  189  A    between atoms: _464  and  _467
REMARK  190  A    between atoms: _467  and  _468
REMARK  191  A    between atoms: _468  and  _469
REMARK  192  A    between atoms: _471  and  _473
REMARK  193  A    between atoms: _473  and  _474
REMARK  194  A    between atoms: _473  and  _476
REMARK  195  A    between atoms: _476  and  _477
REMARK  196  A    between atoms: _482  and  _484
REMARK  197  A    between atoms: _484  and  _485
REMARK  198  A    between atoms: _484  and  _487
REMARK  199  A    between atoms: _487  and  _488
REMARK  200  A    between atoms: _498  and  _500
REMARK  201  A    between atoms: _500  and  _501
REMARK  202  A    between atoms: _500  and  _503
REMARK  203  A    between atoms: _506  and  _508
REMARK  204  A    between atoms: _508  and  _509
REMARK  205  A    between atoms: _508  and  _511
REMARK  206  A    between atoms: _511  and  _512
REMARK  207  A    between atoms: _512  and  _513
REMARK  208  A    between atoms: _513  and  _514
REMARK  209  A    between atoms: _514  and  _515
REMARK  210  A    between atoms: _519  and  _521
REMARK  211  A    between atoms: _521  and  _522
REMARK  212  A    between atoms: _521  and  _524
REMARK  213  A    between atoms: _524  and  _525
REMARK  214  A    between atoms: _525  and  _526
REMARK  215  A    between atoms: _529  and  _531
REMARK  216  A    between atoms: _531  and  _532
REMARK  217  A    between atoms: _531  and  _534
REMARK  218  A    between atoms: _534  and  _535
REMARK  219  A    between atoms: _538  and  _540
REMARK  220  A    between atoms: _540  and  _541
REMARK  221  A    between atoms: _540  and  _543
REMARK  222  A    between atoms: _543  and  _544
REMARK  223  A    between atoms: _544  and  _545
REMARK  224  A    between atoms: _545  and  _546
REMARK  225  A    between atoms: _555  and  _557
REMARK  226  A    between atoms: _557  and  _558
REMARK  227  A    between atoms: _557  and  _560
REMARK  228  A    between atoms: _560  and  _561
REMARK  229  A    between atoms: _564  and  _566
REMARK  230  A    between atoms: _566  and  _567
REMARK  231  A    between atoms: _566  and  _569
REMARK  232  A    between atoms: _569  and  _570
REMARK  233  A    between atoms: _575  and  _577
REMARK  234  A    between atoms: _577  and  _578
REMARK  235  A    between atoms: _577  and  _580
REMARK  236  A    between atoms: _580  and  _581
REMARK  237  A    between atoms: _581  and  _582
REMARK  238  A    between atoms: _582  and  _583
REMARK  239  A    between atoms: _592  and  _594
REMARK  240  A    between atoms: _594  and  _595
REMARK  241  A    between atoms: _594  and  _597
REMARK  242  A    between atoms: _597  and  _598
REMARK  243  A    between atoms: _598  and  _599
REMARK  244  A    between atoms: _601  and  _603
REMARK  245  A    between atoms: _603  and  _604
REMARK  246  A    between atoms: _603  and  _606
REMARK  247  A    between atoms: _606  and  _607
REMARK  248  A    between atoms: _607  and  _608
REMARK  249  A    between atoms: _610  and  _612
REMARK  250  A    between atoms: _612  and  _613
REMARK  251  A    between atoms: _612  and  _615
REMARK  252  A    between atoms: _615  and  _616
REMARK  253  A    between atoms: _616  and  _617
REMARK  254  A    between atoms: _617  and  _618
REMARK  255  A    between atoms: _618  and  _619
REMARK  256  A    between atoms: _623  and  _625
REMARK  257  A    between atoms: _625  and  _626
REMARK  258  A    between atoms: _625  and  _628
REMARK  259  A    between atoms: _628  and  _629
REMARK                            x       y       z     vdW  Elec       q    Type
REMARK                         _______ _______ _______ _____ _____    ______ ____
ROOT
ATOM      1  CA  ASP A   1      61.717  19.536  35.696  0.00  0.00    +0.144 C 
ENDROOT
BRANCH   1   2
ATOM      2  N   ASP A   1      62.266  20.882  35.903  0.00  0.00    -0.239 NA
ATOM      3  H   ASP A   1      63.275  20.995  36.128  0.00  0.00    +0.142 HD
ENDBRANCH   1   2
BRANCH   1   4
ATOM      4  C   ASP A   1      61.035  18.934  36.935  0.00  0.00    +0.225 C 
ATOM      5  O   ASP A   1      61.693  18.628  37.944  0.00  0.00    -0.287 OA
ENDBRANCH   1   4
BRANCH   1   6
ATOM      6  CB  ASP A   1      62.835  18.606  35.182  0.00  0.00    +0.139 C 
BRANCH   6   7
ATOM      7  CG  ASP A   1      62.295  17.339  34.537  0.00  0.00    +0.367 C 
ATOM      8  OD2 ASP A   1      61.572  16.593  35.224  0.00  0.00    -0.246 OA
ATOM      9  OD1 ASP A   1      62.591  17.053  33.344  0.00  0.00    -0.246 OA
ENDBRANCH   6   7
ENDBRANCH   1   6
TORSDOF 4
REMARK  Name = ../refined-set-2016/2pq9/2pq9_pocket.pdb
REMARK  259 active torsions:
REMARK  status: ('A' for Active; 'I' for Inactive)
REMARK    1  A    between atoms: _1  and  _3
REMARK    2  A    between atoms: _3  and  _4
REMARK    3  A    between atoms: _3  and  _6
REMARK    4  A    between atoms: _6  and  _7
REMARK    5  A    between atoms: _9  and  _11
REMARK    6  A    between atoms: _11  and  _12
REMARK    7  A    between atoms: _11  and  _14
REMARK    8  A    between atoms: _14  and  _15
REMARK    9  A    between atoms: _15  and  _16
REMARK   10  A    between atoms: _16  and  _17
REMARK   11  A    between atoms: _17  and  _18
REMARK   12  A    between atoms: _22  and  _24
REMARK   13  A    between atoms: _24  and  _25
REMARK   14  A    between atoms: _24  and  _27
REMARK   15  A    between atoms: _27  and  _28
REMARK   16  A    between atoms: _30  and  _32
REMARK   17  A    between atoms: _32  and  _33
REMARK   18  A    between atoms: _32  and  _35
REMARK   19  A    between atoms: _38  and  _40
REMARK   20  A    between atoms: _40  and  _41
REMARK   21  A    between atoms: _40  and  _43
REMARK   22  A    between atoms: _43  and  _44
REMARK   23  A    between atoms: _46  and  _48
REMARK   24  A    between atoms: _48  and  _49
REMARK   25  A    between atoms: _48  and  _51
REMARK   26  A    between atoms: _51  and  _52
REMARK   27  A    between atoms: _57  and  _59
REMARK   28  A    between atoms: _59  and  _60
REMARK   29  A    between atoms: _59  and  _62
REMARK   30  A    between atoms: _62  and  _63
REMARK   31  A    between atoms: _63  and  _64
REMARK   32  A    between atoms: _64  and  _65
REMARK   33  A    between atoms: _74  and  _76
REMARK   34  A    between atoms: _76  and  _77
REMARK   35  A    between atoms: _76  and  _79
REMARK   36  A    between atoms: _79  and  _80
REMARK   37  A    between atoms: _83  and  _85
REMARK   38  A    between atoms: _85  and  _86
REMARK   39  A    between atoms: _85  and  _88
REMARK   40  A    between atoms: _88  and  _89
REMARK   41  A    between atoms: _92  and  _94
REMARK   42  A    between atoms: _94  and  _95
REMARK   43  A    between atoms: _97  and  _99
REMARK   44  A    between atoms: _99  and  _100
REMARK   45  A    between atoms: _99  and  _102
REMARK   46  A    between atoms: _102  and  _103
REMARK   47  A    between atoms: _108  and  _110
REMARK   48  A    between atoms: _110  and  _111
REMARK   49  A    between atoms: _114  and  _116
REMARK   50  A    between atoms: _116  and  _117
REMARK   51  A    between atoms: _119  and  _121
REMARK   52  A    between atoms: _121  and  _122
REMARK   53  A    between atoms: _121  and  _124
REMARK   54  A    between atoms: _124  and  _125
REMARK   55  A    between atoms: _128  and  _130
REMARK   56  A    between atoms: _130  and  _131
REMARK   57  A    between atoms: _134  and  _136
REMARK   58  A    between atoms: _136  and  _137
REMARK   59  A    between atoms: _136  and  _139
REMARK   60  A    between atoms: _139  and  _140
REMARK   61  A    between atoms: _140  and  _141
REMARK   62  A    between atoms: _143  and  _145
REMARK   63  A    between atoms: _145  and  _146
REMARK   64  A    between atoms: _145  and  _148
REMARK   65  A    between atoms: _148  and  _149
REMARK   66  A    between atoms: _149  and  _150
REMARK   67  A    between atoms: _150  and  _151
REMARK   68  A    between atoms: _161  and  _162
REMARK   69  A    between atoms: _167  and  _169
REMARK   70  A    between atoms: _169  and  _170
REMARK   71  A    between atoms: _169  and  _172
REMARK   72  A    between atoms: _172  and  _173
REMARK   73  A    between atoms: _173  and  _174
REMARK   74  A    between atoms: _174  and  _175
REMARK   75  A    between atoms: _184  and  _186
REMARK   76  A    between atoms: _186  and  _187
REMARK   77  A    between atoms: _186  and  _189
REMARK   78  A    between atoms: _189  and  _190
REMARK   79  A    between atoms: _190  and  _191
REMARK   80  A    between atoms: _193  and  _195
REMARK   81  A    between atoms: _195  and  _196
REMARK   82  A    between atoms: _195  and  _198
REMARK   83  A    between atoms: _198  and  _199
REMARK   84  A    between atoms: _199  and  _200
REMARK   85  A    between atoms: _200  and  _201
REMARK   86  A    between atoms: _211  and  _212
REMARK   87  A    between atoms: _217  and  _219
REMARK   88  A    between atoms: _219  and  _220
REMARK   89  A    between atoms: _222  and  _224
REMARK   90  A    between atoms: _224  and  _225
REMARK   91  A    between atoms: _224  and  _227
REMARK   92  A    between atoms: _230  and  _232
REMARK   93  A    between atoms: _232  and  _233
REMARK   94  A    between atoms: _232  and  _235
REMARK   95  A    between atoms: _235  and  _236
REMARK   96  A    between atoms: _238  and  _240
REMARK   97  A    between atoms: _240  and  _241
REMARK   98  A    between atoms: _240  and  _243
REMARK   99  A    between atoms: _243  and  _244
REMARK  100  A    between atoms: _246  and  _248
REMARK  101  A    between atoms: _248  and  _249
REMARK  102  A    between atoms: _248  and  _251
REMARK  103  A    between atoms: _251  and  _252
REMARK  104  A    between atoms: _252  and  _253
REMARK  105  A    between atoms: _258  and  _260
REMARK  106  A    between atoms: _260  and  _261
REMARK  107  A    between atoms: _260  and  _263
REMARK  108  A    between atoms: _263  and  _264
REMARK  109  A    between atoms: _270  and  _272
REMARK  110  A    between atoms: _272  and  _273
REMARK  111  A    between atoms: _272  and  _275
REMARK  112  A    between atoms: _275  and  _276
REMARK  113  A    between atoms: _279  and  _281
REMARK  114  A    between atoms: _281  and  _282
REMARK  115  A    between atoms: _281  and  _284
REMARK  116  A    between atoms: _284  and  _285
REMARK  117  A    between atoms: _288  and  _290
REMARK  118  A    between atoms: _290  and  _291
REMARK  119  A    between atoms: _294  and  _296
REMARK  120  A    between atoms: _296  and  _297
REMARK  121  A    between atoms: _296  and  _299
REMARK  122  A    between atoms: _299  and  _300
REMARK  123  A    between atoms: _303  and  _305
REMARK  124  A    between atoms: _305  and  _306
REMARK  125  A    between atoms: _305  and  _308
REMARK  126  A    between atoms: _311  and  _313
REMARK  127  A    between atoms: _313  and  _314
REMARK  128  A    between atoms: _313  and  _316
REMARK  129  A    between atoms: _316  and  _317
REMARK  130  A    between atoms: _319  and  _321
REMARK  131  A    between atoms: _321  and  _322
REMARK  132  A    between atoms: _321  and  _324
REMARK  133  A    between atoms: _324  and  _325
REMARK  134  A    between atoms: _325  and  _326
REMARK  135  A    between atoms: _326  and  _327
REMARK  136  A    between atoms: _327  and  _328
REMARK  137  A    between atoms: _333  and  _334
REMARK  138  A    between atoms: _339  and  _341
REMARK  139  A    between atoms: _341  and  _342
REMARK  140  A    between atoms: _341  and  _344
REMARK  141  A    between atoms: _344  and  _345
REMARK  142  A    between atoms: _350  and  _351
REMARK  143  A    between atoms: _353  and  _355
REMARK  144  A    between atoms: _355  and  _356
REMARK  145  A    between atoms: _355  and  _358
REMARK  146  A    between atoms: _358  and  _359
REMARK  147  A    between atoms: _362  and  _364
REMARK  148  A    between atoms: _364  and  _365
REMARK  149  A    between atoms: _364  and  _367
REMARK  150  A    between atoms: _367  and  _368
REMARK  151  A    between atoms: _371  and  _373
REMARK  152  A    between atoms: _373  and  _374
REMARK  153  A    between atoms: _373  and  _376
REMARK  154  A    between atoms: _376  and  _377
REMARK  155  A    between atoms: _380  and  _382
REMARK  156  A    between atoms: _382  and  _383
REMARK  157  A    between atoms: _382  and  _385
REMARK  158  A    between atoms: _385  and  _386
REMARK  159  A    between atoms: _389  and  _391
REMARK  160  A    between atoms: _391  and  _392
REMARK  161  A    between atoms: _391  and  _394
REMARK  162  A    between atoms: _394  and  _395
REMARK  163  A    between atoms: _397  and  _399
REMARK  164  A    between atoms: _399  and  _400
REMARK  165  A    between atoms: _399  and  _402
REMARK  166  A    between atoms: _402  and  _403
REMARK  167  A    between atoms: _408  and  _409
REMARK  168  A    between atoms: _411  and  _413
REMARK  169  A    between atoms: _413  and  _414
REMARK  170  A    between atoms: _413  and  _416
REMARK  171  A    between atoms: _416  and  _417
REMARK  172  A    between atoms: _420  and  _422
REMARK  173  A    between atoms: _422  and  _423
REMARK  174  A    between atoms: _422  and  _425
REMARK  175  A    between atoms: _425  and  _426
REMARK  176  A    between atoms: _431  and  _433
REMARK  177  A    between atoms: _433  and  _434
REMARK  178  A    between atoms: _433  and  _436
REMARK  179  A    between atoms: _436  and  _437
REMARK  180  A    between atoms: _441  and  _442
REMARK  181  A    between atoms: _447  and  _449
REMARK  182  A    between atoms: _449  and  _450
REMARK  183  A    between atoms: _449  and  _452
REMARK  184  A    between atoms: _452  and  _453
REMARK  185  A    between atoms: _456  and  _458
REMARK  186  A    between atoms: _458  and  _459
REMARK  187  A    between atoms: _462  and  _464
REMARK  188  A    between atoms: _464  and  _465
REMARK  189  A    between atoms: _464  and  _467
REMARK  190  A    between atoms: _467  and  _468
REMARK  191  A    between atoms: _468  and  _469
REMARK  192  A    between atoms: _471  and  _473
REMARK  193  A    between atoms: _473  and  _474
REMARK  194  A    between atoms: _473  and  _476
REMARK  195  A    between atoms: _476  and  _477
REMARK  196  A    between atoms: _482  and  _484
REMARK  197  A    between atoms: _484  and  _485
REMARK  198  A    between atoms: _484  and  _487
REMARK  199  A    between atoms: _487  and  _488
REMARK  200  A    between atoms: _498  and  _500
REMARK  201  A    between atoms: _500  and  _501
REMARK  202  A    between atoms: _500  and  _503
REMARK  203  A    between atoms: _506  and  _508
REMARK  204  A    between atoms: _508  and  _509
REMARK  205  A    between atoms: _508  and  _511
REMARK  206  A    between atoms: _511  and  _512
REMARK  207  A    between atoms: _512  and  _513
REMARK  208  A    between atoms: _513  and  _514
REMARK  209  A    between atoms: _514  and  _515
REMARK  210  A    between atoms: _519  and  _521
REMARK  211  A    between atoms: _521  and  _522
REMARK  212  A    between atoms: _521  and  _524
REMARK  213  A    between atoms: _524  and  _525
REMARK  214  A    between atoms: _525  and  _526
REMARK  215  A    between atoms: _529  and  _531
REMARK  216  A    between atoms: _531  and  _532
REMARK  217  A    between atoms: _531  and  _534
REMARK  218  A    between atoms: _534  and  _535
REMARK  219  A    between atoms: _538  and  _540
REMARK  220  A    between atoms: _540  and  _541
REMARK  221  A    between atoms: _540  and  _543
REMARK  222  A    between atoms: _543  and  _544
REMARK  223  A    between atoms: _544  and  _545
REMARK  224  A    between atoms: _545  and  _546
REMARK  225  A    between atoms: _555  and  _557
REMARK  226  A    between atoms: _557  and  _558
REMARK  227  A    between atoms: _557  and  _560
REMARK  228  A    between atoms: _560  and  _561
REMARK  229  A    between atoms: _564  and  _566
REMARK  230  A    between atoms: _566  and  _567
REMARK  231  A    between atoms: _566  and  _569
REMARK  232  A    between atoms: _569  and  _570
REMARK  233  A    between atoms: _575  and  _577
REMARK  234  A    between atoms: _577  and  _578
REMARK  235  A    between atoms: _577  and  _580
REMARK  236  A    between atoms: _580  and  _581
REMARK  237  A    between atoms: _581  and  _582
REMARK  238  A    between atoms: _582  and  _583
REMARK  239  A    between atoms: _592  and  _594
REMARK  240  A    between atoms: _594  and  _595
REMARK  241  A    between atoms: _594  and  _597
REMARK  242  A    between atoms: _597  and  _598
REMARK  243  A    between atoms: _598  and  _599
REMARK  244  A    between atoms: _601  and  _603
REMARK  245  A    between atoms: _603  and  _604
REMARK  246  A    between atoms: _603  and  _606
REMARK  247  A    between atoms: _606  and  _607
REMARK  248  A    between atoms: _607  and  _608
REMARK  249  A    between atoms: _610  and  _612
REMARK  250  A    between atoms: _612  and  _613
REMARK  251  A    between atoms: _612  and  _615
REMARK  252  A    between atoms: _615  and  _616
REMARK  253  A    between atoms: _616  and  _617
REMARK  254  A    between atoms: _617  and  _618
REMARK  255  A    between atoms: _618  and  _619
REMARK  256  A    between atoms: _623  and  _625
REMARK  257  A    between atoms: _625  and  _626
REMARK  258  A    between atoms: _625  and  _628
REMARK  259  A    between atoms: _628  and  _629
REMARK                            x       y       z     vdW  Elec       q    Type
REMARK                         _______ _______ _______ _____ _____    ______ ____
ROOT
ATOM      1  CA  SER A   1      59.977  14.564  37.395  0.00  0.00    +0.163 C 
ENDROOT
BRANCH   1   2
ATOM      2  N   SER A   1      59.654  15.979  37.222  0.00  0.00    -0.237 NA
ATOM      3  H   SER A   1      59.752  16.417  36.284  0.00  0.00    +0.142 HD
ENDBRANCH   1   2
BRANCH   1   4
ATOM      4  CB  SER A   1      61.292  14.513  38.178  0.00  0.00    +0.227 C 
ATOM      5  OG  SER A   1      61.417  13.751  39.131  0.00  0.00    -0.287 OA
ENDBRANCH   1   4
BRANCH   1   6
ATOM      6  C   SER A   1      60.116  13.894  36.020  0.00  0.00    +0.162 C 
BRANCH   6   7
ATOM      7  O   SER A   1      58.908  14.031  35.274  0.00  0.00    -0.380 OA
ATOM      8  H   SER A   1      58.166  13.601  35.768  0.00  0.00    +0.211 HD
ENDBRANCH   6   7
ENDBRANCH   1   6
TORSDOF 4
REMARK  Name = ../refined-set-2016/2pq9/2pq9_pocket.pdb
REMARK  259 active torsions:
REMARK  status: ('A' for Active; 'I' for Inactive)
REMARK    1  A    between atoms: _1  and  _3
REMARK    2  A    between atoms: _3  and  _4
REMARK    3  A    between atoms: _3  and  _6
REMARK    4  A    between atoms: _6  and  _7
REMARK    5  A    between atoms: _9  and  _11
REMARK    6  A    between atoms: _11  and  _12
REMARK    7  A    between atoms: _11  and  _14
REMARK    8  A    between atoms: _14  and  _15
REMARK    9  A    between atoms: _15  and  _16
REMARK   10  A    between atoms: _16  and  _17
REMARK   11  A    between atoms: _17  and  _18
REMARK   12  A    between atoms: _22  and  _24
REMARK   13  A    between atoms: _24  and  _25
REMARK   14  A    between atoms: _24  and  _27
REMARK   15  A    between atoms: _27  and  _28
REMARK   16  A    between atoms: _30  and  _32
REMARK   17  A    between atoms: _32  and  _33
REMARK   18  A    between atoms: _32  and  _35
REMARK   19  A    between atoms: _38  and  _40
REMARK   20  A    between atoms: _40  and  _41
REMARK   21  A    between atoms: _40  and  _43
REMARK   22  A    between atoms: _43  and  _44
REMARK   23  A    between atoms: _46  and  _48
REMARK   24  A    between atoms: _48  and  _49
REMARK   25  A    between atoms: _48  and  _51
REMARK   26  A    between atoms: _51  and  _52
REMARK   27  A    between atoms: _57  and  _59
REMARK   28  A    between atoms: _59  and  _60
REMARK   29  A    between atoms: _59  and  _62
REMARK   30  A    between atoms: _62  and  _63
REMARK   31  A    between atoms: _63  and  _64
REMARK   32  A    between atoms: _64  and  _65
REMARK   33  A    between atoms: _74  and  _76
REMARK   34  A    between atoms: _76  and  _77
REMARK   35  A    between atoms: _76  and  _79
REMARK   36  A    between atoms: _79  and  _80
REMARK   37  A    between atoms: _83  and  _85
REMARK   38  A    between atoms: _85  and  _86
REMARK   39  A    between atoms: _85  and  _88
REMARK   40  A    between atoms: _88  and  _89
REMARK   41  A    between atoms: _92  and  _94
REMARK   42  A    between atoms: _94  and  _95
REMARK   43  A    between atoms: _97  and  _99
REMARK   44  A    between atoms: _99  and  _100
REMARK   45  A    between atoms: _99  and  _102
REMARK   46  A    between atoms: _102  and  _103
REMARK   47  A    between atoms: _108  and  _110
REMARK   48  A    between atoms: _110  and  _111
REMARK   49  A    between atoms: _114  and  _116
REMARK   50  A    between atoms: _116  and  _117
REMARK   51  A    between atoms: _119  and  _121
REMARK   52  A    between atoms: _121  and  _122
REMARK   53  A    between atoms: _121  and  _124
REMARK   54  A    between atoms: _124  and  _125
REMARK   55  A    between atoms: _128  and  _130
REMARK   56  A    between atoms: _130  and  _131
REMARK   57  A    between atoms: _134  and  _136
REMARK   58  A    between atoms: _136  and  _137
REMARK   59  A    between atoms: _136  and  _139
REMARK   60  A    between atoms: _139  and  _140
REMARK   61  A    between atoms: _140  and  _141
REMARK   62  A    between atoms: _143  and  _145
REMARK   63  A    between atoms: _145  and  _146
REMARK   64  A    between atoms: _145  and  _148
REMARK   65  A    between atoms: _148  and  _149
REMARK   66  A    between atoms: _149  and  _150
REMARK   67  A    between atoms: _150  and  _151
REMARK   68  A    between atoms: _161  and  _162
REMARK   69  A    between atoms: _167  and  _169
REMARK   70  A    between atoms: _169  and  _170
REMARK   71  A    between atoms: _169  and  _172
REMARK   72  A    between atoms: _172  and  _173
REMARK   73  A    between atoms: _173  and  _174
REMARK   74  A    between atoms: _174  and  _175
REMARK   75  A    between atoms: _184  and  _186
REMARK   76  A    between atoms: _186  and  _187
REMARK   77  A    between atoms: _186  and  _189
REMARK   78  A    between atoms: _189  and  _190
REMARK   79  A    between atoms: _190  and  _191
REMARK   80  A    between atoms: _193  and  _195
REMARK   81  A    between atoms: _195  and  _196
REMARK   82  A    between atoms: _195  and  _198
REMARK   83  A    between atoms: _198  and  _199
REMARK   84  A    between atoms: _199  and  _200
REMARK   85  A    between atoms: _200  and  _201
REMARK   86  A    between atoms: _211  and  _212
REMARK   87  A    between atoms: _217  and  _219
REMARK   88  A    between atoms: _219  and  _220
REMARK   89  A    between atoms: _222  and  _224
REMARK   90  A    between atoms: _224  and  _225
REMARK   91  A    between atoms: _224  and  _227
REMARK   92  A    between atoms: _230  and  _232
REMARK   93  A    between atoms: _232  and  _233
REMARK   94  A    between atoms: _232  and  _235
REMARK   95  A    between atoms: _235  and  _236
REMARK   96  A    between atoms: _238  and  _240
REMARK   97  A    between atoms: _240  and  _241
REMARK   98  A    between atoms: _240  and  _243
REMARK   99  A    between atoms: _243  and  _244
REMARK  100  A    between atoms: _246  and  _248
REMARK  101  A    between atoms: _248  and  _249
REMARK  102  A    between atoms: _248  and  _251
REMARK  103  A    between atoms: _251  and  _252
REMARK  104  A    between atoms: _252  and  _253
REMARK  105  A    between atoms: _258  and  _260
REMARK  106  A    between atoms: _260  and  _261
REMARK  107  A    between atoms: _260  and  _263
REMARK  108  A    between atoms: _263  and  _264
REMARK  109  A    between atoms: _270  and  _272
REMARK  110  A    between atoms: _272  and  _273
REMARK  111  A    between atoms: _272  and  _275
REMARK  112  A    between atoms: _275  and  _276
REMARK  113  A    between atoms: _279  and  _281
REMARK  114  A    between atoms: _281  and  _282
REMARK  115  A    between atoms: _281  and  _284
REMARK  116  A    between atoms: _284  and  _285
REMARK  117  A    between atoms: _288  and  _290
REMARK  118  A    between atoms: _290  and  _291
REMARK  119  A    between atoms: _294  and  _296
REMARK  120  A    between atoms: _296  and  _297
REMARK  121  A    between atoms: _296  and  _299
REMARK  122  A    between atoms: _299  and  _300
REMARK  123  A    between atoms: _303  and  _305
REMARK  124  A    between atoms: _305  and  _306
REMARK  125  A    between atoms: _305  and  _308
REMARK  126  A    between atoms: _311  and  _313
REMARK  127  A    between atoms: _313  and  _314
REMARK  128  A    between atoms: _313  and  _316
REMARK  129  A    between atoms: _316  and  _317
REMARK  130  A    between atoms: _319  and  _321
REMARK  131  A    between atoms: _321  and  _322
REMARK  132  A    between atoms: _321  and  _324
REMARK  133  A    between atoms: _324  and  _325
REMARK  134  A    between atoms: _325  and  _326
REMARK  135  A    between atoms: _326  and  _327
REMARK  136  A    between atoms: _327  and  _328
REMARK  137  A    between atoms: _333  and  _334
REMARK  138  A    between atoms: _339  and  _341
REMARK  139  A    between atoms: _341  and  _342
REMARK  140  A    between atoms: _341  and  _344
REMARK  141  A    between atoms: _344  and  _345
REMARK  142  A    between atoms: _350  and  _351
REMARK  143  A    between atoms: _353  and  _355
REMARK  144  A    between atoms: _355  and  _356
REMARK  145  A    between atoms: _355  and  _358
REMARK  146  A    between atoms: _358  and  _359
REMARK  147  A    between atoms: _362  and  _364
REMARK  148  A    between atoms: _364  and  _365
REMARK  149  A    between atoms: _364  and  _367
REMARK  150  A    between atoms: _367  and  _368
REMARK  151  A    between atoms: _371  and  _373
REMARK  152  A    between atoms: _373  and  _374
REMARK  153  A    between atoms: _373  and  _376
REMARK  154  A    between atoms: _376  and  _377
REMARK  155  A    between atoms: _380  and  _382
REMARK  156  A    between atoms: _382  and  _383
REMARK  157  A    between atoms: _382  and  _385
REMARK  158  A    between atoms: _385  and  _386
REMARK  159  A    between atoms: _389  and  _391
REMARK  160  A    between atoms: _391  and  _392
REMARK  161  A    between atoms: _391  and  _394
REMARK  162  A    between atoms: _394  and  _395
REMARK  163  A    between atoms: _397  and  _399
REMARK  164  A    between atoms: _399  and  _400
REMARK  165  A    between atoms: _399  and  _402
REMARK  166  A    between atoms: _402  and  _403
REMARK  167  A    between atoms: _408  and  _409
REMARK  168  A    between atoms: _411  and  _413
REMARK  169  A    between atoms: _413  and  _414
REMARK  170  A    between atoms: _413  and  _416
REMARK  171  A    between atoms: _416  and  _417
REMARK  172  A    between atoms: _420  and  _422
REMARK  173  A    between atoms: _422  and  _423
REMARK  174  A    between atoms: _422  and  _425
REMARK  175  A    between atoms: _425  and  _426
REMARK  176  A    between atoms: _431  and  _433
REMARK  177  A    between atoms: _433  and  _434
REMARK  178  A    between atoms: _433  and  _436
REMARK  179  A    between atoms: _436  and  _437
REMARK  180  A    between atoms: _441  and  _442
REMARK  181  A    between atoms: _447  and  _449
REMARK  182  A    between atoms: _449  and  _450
REMARK  183  A    between atoms: _449  and  _452
REMARK  184  A    between atoms: _452  and  _453
REMARK  185  A    between atoms: _456  and  _458
REMARK  186  A    between atoms: _458  and  _459
REMARK  187  A    between atoms: _462  and  _464
REMARK  188  A    between atoms: _464  and  _465
REMARK  189  A    between atoms: _464  and  _467
REMARK  190  A    between atoms: _467  and  _468
REMARK  191  A    between atoms: _468  and  _469
REMARK  192  A    between atoms: _471  and  _473
REMARK  193  A    between atoms: _473  and  _474
REMARK  194  A    between atoms: _473  and  _476
REMARK  195  A    between atoms: _476  and  _477
REMARK  196  A    between atoms: _482  and  _484
REMARK  197  A    between atoms: _484  and  _485
REMARK  198  A    between atoms: _484  and  _487
REMARK  199  A    between atoms: _487  and  _488
REMARK  200  A    between atoms: _498  and  _500
REMARK  201  A    between atoms: _500  and  _501
REMARK  202  A    between atoms: _500  and  _503
REMARK  203  A    between atoms: _506  and  _508
REMARK  204  A    between atoms: _508  and  _509
REMARK  205  A    between atoms: _508  and  _511
REMARK  206  A    between atoms: _511  and  _512
REMARK  207  A    between atoms: _512  and  _513
REMARK  208  A    between atoms: _513  and  _514
REMARK  209  A    between atoms: _514  and  _515
REMARK  210  A    between atoms: _519  and  _521
REMARK  211  A    between atoms: _521  and  _522
REMARK  212  A    between atoms: _521  and  _524
REMARK  213  A    between atoms: _524  and  _525
REMARK  214  A    between atoms: _525  and  _526
REMARK  215  A    between atoms: _529  and  _531
REMARK  216  A    between atoms: _531  and  _532
REMARK  217  A    between atoms: _531  and  _534
REMARK  218  A    between atoms: _534  and  _535
REMARK  219  A    between atoms: _538  and  _540
REMARK  220  A    between atoms: _540  and  _541
REMARK  221  A    between atoms: _540  and  _543
REMARK  222  A    between atoms: _543  and  _544
REMARK  223  A    between atoms: _544  and  _545
REMARK  224  A    between atoms: _545  and  _546
REMARK  225  A    between atoms: _555  and  _557
REMARK  226  A    between atoms: _557  and  _558
REMARK  227  A    between atoms: _557  and  _560
REMARK  228  A    between atoms: _560  and  _561
REMARK  229  A    between atoms: _564  and  _566
REMARK  230  A    between atoms: _566  and  _567
REMARK  231  A    between atoms: _566  and  _569
REMARK  232  A    between atoms: _569  and  _570
REMARK  233  A    between atoms: _575  and  _577
REMARK  234  A    between atoms: _577  and  _578
REMARK  235  A    between atoms: _577  and  _580
REMARK  236  A    between atoms: _580  and  _581
REMARK  237  A    between atoms: _581  and  _582
REMARK  238  A    between atoms: _582  and  _583
REMARK  239  A    between atoms: _592  and  _594
REMARK  240  A    between atoms: _594  and  _595
REMARK  241  A    between atoms: _594  and  _597
REMARK  242  A    between atoms: _597  and  _598
REMARK  243  A    between atoms: _598  and  _599
REMARK  244  A    between atoms: _601  and  _603
REMARK  245  A    between atoms: _603  and  _604
REMARK  246  A    between atoms: _603  and  _606
REMARK  247  A    between atoms: _606  and  _607
REMARK  248  A    between atoms: _607  and  _608
REMARK  249  A    between atoms: _610  and  _612
REMARK  250  A    between atoms: _612  and  _613
REMARK  251  A    between atoms: _612  and  _615
REMARK  252  A    between atoms: _615  and  _616
REMARK  253  A    between atoms: _616  and  _617
REMARK  254  A    between atoms: _617  and  _618
REMARK  255  A    between atoms: _618  and  _619
REMARK  256  A    between atoms: _623  and  _625
REMARK  257  A    between atoms: _625  and  _626
REMARK  258  A    between atoms: _625  and  _628
REMARK  259  A    between atoms: _628  and  _629
REMARK                            x       y       z     vdW  Elec       q    Type
REMARK                         _______ _______ _______ _____ _____    ______ ____
ROOT
ATOM      1  CG  TYR A   1      64.596  11.627  41.909  0.00  0.00    -0.020 A 
ATOM      2  CD2 TYR A   1      64.138  10.300  41.957  0.00  0.00    -0.001 A 
ATOM      3  CE2 TYR A   1      63.720   9.637  40.784  0.00  0.00    +0.036 A 
ATOM      4  CZ  TYR A   1      63.753  10.309  39.570  0.00  0.00    +0.134 A 
ATOM      5  CE1 TYR A   1      64.218  11.627  39.497  0.00  0.00    +0.036 A 
ATOM      6  CD1 TYR A   1      64.637  12.278  40.658  0.00  0.00    -0.001 A 
ENDROOT
BRANCH   4   7
ATOM      7  OH  TYR A   1      63.267   9.662  38.454  0.00  0.00    -0.506 OA
ATOM      8  HH  TYR A   1      62.987   8.745  38.701  0.00  0.00    +0.292 HD
ENDBRANCH   4   7
BRANCH   1   9
ATOM      9  CB  TYR A   1      64.927  12.376  43.183  0.00  0.00    +0.051 C 
BRANCH   9  10
ATOM     10  CA  TYR A   1      63.661  12.605  44.026  0.00  0.00    +0.137 C 
BRANCH  10  11
ATOM     11  N   TYR A   1      62.643  13.235  43.193  0.00  0.00    -0.239 NA
ATOM     12  H   TYR A   1      62.877  13.536  42.225  0.00  0.00    +0.142 HD
ENDBRANCH  10  11
BRANCH  10  13
ATOM     13  C   TYR A   1      63.998  13.400  45.286  0.00  0.00    +0.224 C 
ATOM     14  O   TYR A   1      64.133  12.832  46.377  0.00  0.00    -0.287 OA
ENDBRANCH  10  13
ENDBRANCH   9  10
ENDBRANCH   1   9
TORSDOF 5
REMARK  Name = ../refined-set-2016/2pq9/2pq9_pocket.pdb
REMARK  259 active torsions:
REMARK  status: ('A' for Active; 'I' for Inactive)
REMARK    1  A    between atoms: _1  and  _3
REMARK    2  A    between atoms: _3  and  _4
REMARK    3  A    between atoms: _3  and  _6
REMARK    4  A    between atoms: _6  and  _7
REMARK    5  A    between atoms: _9  and  _11
REMARK    6  A    between atoms: _11  and  _12
REMARK    7  A    between atoms: _11  and  _14
REMARK    8  A    between atoms: _14  and  _15
REMARK    9  A    between atoms: _15  and  _16
REMARK   10  A    between atoms: _16  and  _17
REMARK   11  A    between atoms: _17  and  _18
REMARK   12  A    between atoms: _22  and  _24
REMARK   13  A    between atoms: _24  and  _25
REMARK   14  A    between atoms: _24  and  _27
REMARK   15  A    between atoms: _27  and  _28
REMARK   16  A    between atoms: _30  and  _32
REMARK   17  A    between atoms: _32  and  _33
REMARK   18  A    between atoms: _32  and  _35
REMARK   19  A    between atoms: _38  and  _40
REMARK   20  A    between atoms: _40  and  _41
REMARK   21  A    between atoms: _40  and  _43
REMARK   22  A    between atoms: _43  and  _44
REMARK   23  A    between atoms: _46  and  _48
REMARK   24  A    between atoms: _48  and  _49
REMARK   25  A    between atoms: _48  and  _51
REMARK   26  A    between atoms: _51  and  _52
REMARK   27  A    between atoms: _57  and  _59
REMARK   28  A    between atoms: _59  and  _60
REMARK   29  A    between atoms: _59  and  _62
REMARK   30  A    between atoms: _62  and  _63
REMARK   31  A    between atoms: _63  and  _64
REMARK   32  A    between atoms: _64  and  _65
REMARK   33  A    between atoms: _74  and  _76
REMARK   34  A    between atoms: _76  and  _77
REMARK   35  A    between atoms: _76  and  _79
REMARK   36  A    between atoms: _79  and  _80
REMARK   37  A    between atoms: _83  and  _85
REMARK   38  A    between atoms: _85  and  _86
REMARK   39  A    between atoms: _85  and  _88
REMARK   40  A    between atoms: _88  and  _89
REMARK   41  A    between atoms: _92  and  _94
REMARK   42  A    between atoms: _94  and  _95
REMARK   43  A    between atoms: _97  and  _99
REMARK   44  A    between atoms: _99  and  _100
REMARK   45  A    between atoms: _99  and  _102
REMARK   46  A    between atoms: _102  and  _103
REMARK   47  A    between atoms: _108  and  _110
REMARK   48  A    between atoms: _110  and  _111
REMARK   49  A    between atoms: _114  and  _116
REMARK   50  A    between atoms: _116  and  _117
REMARK   51  A    between atoms: _119  and  _121
REMARK   52  A    between atoms: _121  and  _122
REMARK   53  A    between atoms: _121  and  _124
REMARK   54  A    between atoms: _124  and  _125
REMARK   55  A    between atoms: _128  and  _130
REMARK   56  A    between atoms: _130  and  _131
REMARK   57  A    between atoms: _134  and  _136
REMARK   58  A    between atoms: _136  and  _137
REMARK   59  A    between atoms: _136  and  _139
REMARK   60  A    between atoms: _139  and  _140
REMARK   61  A    between atoms: _140  and  _141
REMARK   62  A    between atoms: _143  and  _145
REMARK   63  A    between atoms: _145  and  _146
REMARK   64  A    between atoms: _145  and  _148
REMARK   65  A    between atoms: _148  and  _149
REMARK   66  A    between atoms: _149  and  _150
REMARK   67  A    between atoms: _150  and  _151
REMARK   68  A    between atoms: _161  and  _162
REMARK   69  A    between atoms: _167  and  _169
REMARK   70  A    between atoms: _169  and  _170
REMARK   71  A    between atoms: _169  and  _172
REMARK   72  A    between atoms: _172  and  _173
REMARK   73  A    between atoms: _173  and  _174
REMARK   74  A    between atoms: _174  and  _175
REMARK   75  A    between atoms: _184  and  _186
REMARK   76  A    between atoms: _186  and  _187
REMARK   77  A    between atoms: _186  and  _189
REMARK   78  A    between atoms: _189  and  _190
REMARK   79  A    between atoms: _190  and  _191
REMARK   80  A    between atoms: _193  and  _195
REMARK   81  A    between atoms: _195  and  _196
REMARK   82  A    between atoms: _195  and  _198
REMARK   83  A    between atoms: _198  and  _199
REMARK   84  A    between atoms: _199  and  _200
REMARK   85  A    between atoms: _200  and  _201
REMARK   86  A    between atoms: _211  and  _212
REMARK   87  A    between atoms: _217  and  _219
REMARK   88  A    between atoms: _219  and  _220
REMARK   89  A    between atoms: _222  and  _224
REMARK   90  A    between atoms: _224  and  _225
REMARK   91  A    between atoms: _224  and  _227
REMARK   92  A    between atoms: _230  and  _232
REMARK   93  A    between atoms: _232  and  _233
REMARK   94  A    between atoms: _232  and  _235
REMARK   95  A    between atoms: _235  and  _236
REMARK   96  A    between atoms: _238  and  _240
REMARK   97  A    between atoms: _240  and  _241
REMARK   98  A    between atoms: _240  and  _243
REMARK   99  A    between atoms: _243  and  _244
REMARK  100  A    between atoms: _246  and  _248
REMARK  101  A    between atoms: _248  and  _249
REMARK  102  A    between atoms: _248  and  _251
REMARK  103  A    between atoms: _251  and  _252
REMARK  104  A    between atoms: _252  and  _253
REMARK  105  A    between atoms: _258  and  _260
REMARK  106  A    between atoms: _260  and  _261
REMARK  107  A    between atoms: _260  and  _263
REMARK  108  A    between atoms: _263  and  _264
REMARK  109  A    between atoms: _270  and  _272
REMARK  110  A    between atoms: _272  and  _273
REMARK  111  A    between atoms: _272  and  _275
REMARK  112  A    between atoms: _275  and  _276
REMARK  113  A    between atoms: _279  and  _281
REMARK  114  A    between atoms: _281  and  _282
REMARK  115  A    between atoms: _281  and  _284
REMARK  116  A    between atoms: _284  and  _285
REMARK  117  A    between atoms: _288  and  _290
REMARK  118  A    between atoms: _290  and  _291
REMARK  119  A    between atoms: _294  and  _296
REMARK  120  A    between atoms: _296  and  _297
REMARK  121  A    between atoms: _296  and  _299
REMARK  122  A    between atoms: _299  and  _300
REMARK  123  A    between atoms: _303  and  _305
REMARK  124  A    between atoms: _305  and  _306
REMARK  125  A    between atoms: _305  and  _308
REMARK  126  A    between atoms: _311  and  _313
REMARK  127  A    between atoms: _313  and  _314
REMARK  128  A    between atoms: _313  and  _316
REMARK  129  A    between atoms: _316  and  _317
REMARK  130  A    between atoms: _319  and  _321
REMARK  131  A    between atoms: _321  and  _322
REMARK  132  A    between atoms: _321  and  _324
REMARK  133  A    between atoms: _324  and  _325
REMARK  134  A    between atoms: _325  and  _326
REMARK  135  A    between atoms: _326  and  _327
REMARK  136  A    between atoms: _327  and  _328
REMARK  137  A    between atoms: _333  and  _334
REMARK  138  A    between atoms: _339  and  _341
REMARK  139  A    between atoms: _341  and  _342
REMARK  140  A    between atoms: _341  and  _344
REMARK  141  A    between atoms: _344  and  _345
REMARK  142  A    between atoms: _350  and  _351
REMARK  143  A    between atoms: _353  and  _355
REMARK  144  A    between atoms: _355  and  _356
REMARK  145  A    between atoms: _355  and  _358
REMARK  146  A    between atoms: _358  and  _359
REMARK  147  A    between atoms: _362  and  _364
REMARK  148  A    between atoms: _364  and  _365
REMARK  149  A    between atoms: _364  and  _367
REMARK  150  A    between atoms: _367  and  _368
REMARK  151  A    between atoms: _371  and  _373
REMARK  152  A    between atoms: _373  and  _374
REMARK  153  A    between atoms: _373  and  _376
REMARK  154  A    between atoms: _376  and  _377
REMARK  155  A    between atoms: _380  and  _382
REMARK  156  A    between atoms: _382  and  _383
REMARK  157  A    between atoms: _382  and  _385
REMARK  158  A    between atoms: _385  and  _386
REMARK  159  A    between atoms: _389  and  _391
REMARK  160  A    between atoms: _391  and  _392
REMARK  161  A    between atoms: _391  and  _394
REMARK  162  A    between atoms: _394  and  _395
REMARK  163  A    between atoms: _397  and  _399
REMARK  164  A    between atoms: _399  and  _400
REMARK  165  A    between atoms: _399  and  _402
REMARK  166  A    between atoms: _402  and  _403
REMARK  167  A    between atoms: _408  and  _409
REMARK  168  A    between atoms: _411  and  _413
REMARK  169  A    between atoms: _413  and  _414
REMARK  170  A    between atoms: _413  and  _416
REMARK  171  A    between atoms: _416  and  _417
REMARK  172  A    between atoms: _420  and  _422
REMARK  173  A    between atoms: _422  and  _423
REMARK  174  A    between atoms: _422  and  _425
REMARK  175  A    between atoms: _425  and  _426
REMARK  176  A    between atoms: _431  and  _433
REMARK  177  A    between atoms: _433  and  _434
REMARK  178  A    between atoms: _433  and  _436
REMARK  179  A    between atoms: _436  and  _437
REMARK  180  A    between atoms: _441  and  _442
REMARK  181  A    between atoms: _447  and  _449
REMARK  182  A    between atoms: _449  and  _450
REMARK  183  A    between atoms: _449  and  _452
REMARK  184  A    between atoms: _452  and  _453
REMARK  185  A    between atoms: _456  and  _458
REMARK  186  A    between atoms: _458  and  _459
REMARK  187  A    between atoms: _462  and  _464
REMARK  188  A    between atoms: _464  and  _465
REMARK  189  A    between atoms: _464  and  _467
REMARK  190  A    between atoms: _467  and  _468
REMARK  191  A    between atoms: _468  and  _469
REMARK  192  A    between atoms: _471  and  _473
REMARK  193  A    between atoms: _473  and  _474
REMARK  194  A    between atoms: _473  and  _476
REMARK  195  A    between atoms: _476  and  _477
REMARK  196  A    between atoms: _482  and  _484
REMARK  197  A    between atoms: _484  and  _485
REMARK  198  A    between atoms: _484  and  _487
REMARK  199  A    between atoms: _487  and  _488
REMARK  200  A    between atoms: _498  and  _500
REMARK  201  A    between atoms: _500  and  _501
REMARK  202  A    between atoms: _500  and  _503
REMARK  203  A    between atoms: _506  and  _508
REMARK  204  A    between atoms: _508  and  _509
REMARK  205  A    between atoms: _508  and  _511
REMARK  206  A    between atoms: _511  and  _512
REMARK  207  A    between atoms: _512  and  _513
REMARK  208  A    between atoms: _513  and  _514
REMARK  209  A    between atoms: _514  and  _515
REMARK  210  A    between atoms: _519  and  _521
REMARK  211  A    between atoms: _521  and  _522
REMARK  212  A    between atoms: _521  and  _524
REMARK  213  A    between atoms: _524  and  _525
REMARK  214  A    between atoms: _525  and  _526
REMARK  215  A    between atoms: _529  and  _531
REMARK  216  A    between atoms: _531  and  _532
REMARK  217  A    between atoms: _531  and  _534
REMARK  218  A    between atoms: _534  and  _535
REMARK  219  A    between atoms: _538  and  _540
REMARK  220  A    between atoms: _540  and  _541
REMARK  221  A    between atoms: _540  and  _543
REMARK  222  A    between atoms: _543  and  _544
REMARK  223  A    between atoms: _544  and  _545
REMARK  224  A    between atoms: _545  and  _546
REMARK  225  A    between atoms: _555  and  _557
REMARK  226  A    between atoms: _557  and  _558
REMARK  227  A    between atoms: _557  and  _560
REMARK  228  A    between atoms: _560  and  _561
REMARK  229  A    between atoms: _564  and  _566
REMARK  230  A    between atoms: _566  and  _567
REMARK  231  A    between atoms: _566  and  _569
REMARK  232  A    between atoms: _569  and  _570
REMARK  233  A    between atoms: _575  and  _577
REMARK  234  A    between atoms: _577  and  _578
REMARK  235  A    between atoms: _577  and  _580
REMARK  236  A    between atoms: _580  and  _581
REMARK  237  A    between atoms: _581  and  _582
REMARK  238  A    between atoms: _582  and  _583
REMARK  239  A    between atoms: _592  and  _594
REMARK  240  A    between atoms: _594  and  _595
REMARK  241  A    between atoms: _594  and  _597
REMARK  242  A    between atoms: _597  and  _598
REMARK  243  A    between atoms: _598  and  _599
REMARK  244  A    between atoms: _601  and  _603
REMARK  245  A    between atoms: _603  and  _604
REMARK  246  A    between atoms: _603  and  _606
REMARK  247  A    between atoms: _606  and  _607
REMARK  248  A    between atoms: _607  and  _608
REMARK  249  A    between atoms: _610  and  _612
REMARK  250  A    between atoms: _612  and  _613
REMARK  251  A    between atoms: _612  and  _615
REMARK  252  A    between atoms: _615  and  _616
REMARK  253  A    between atoms: _616  and  _617
REMARK  254  A    between atoms: _617  and  _618
REMARK  255  A    between atoms: _618  and  _619
REMARK  256  A    between atoms: _623  and  _625
REMARK  257  A    between atoms: _625  and  _626
REMARK  258  A    between atoms: _625  and  _628
REMARK  259  A    between atoms: _628  and  _629
REMARK                            x       y       z     vdW  Elec       q    Type
REMARK                         _______ _______ _______ _____ _____    ______ ____
ROOT
ATOM      1  CA  ASP A   1      54.326  15.415  37.928  0.00  0.00    +0.144 C 
ENDROOT
BRANCH   1   2
ATOM      2  N   ASP A   1      53.608  15.971  36.785  0.00  0.00    -0.239 NA
ATOM      3  H   ASP A   1      54.117  16.278  35.932  0.00  0.00    +0.142 HD
ENDBRANCH   1   2
BRANCH   1   4
ATOM      4  C   ASP A   1      54.358  16.273  39.188  0.00  0.00    +0.225 C 
ATOM      5  O   ASP A   1      54.820  15.809  40.216  0.00  0.00    -0.287 OA
ENDBRANCH   1   4
BRANCH   1   6
ATOM      6  CB  ASP A   1      55.754  14.945  37.537  0.00  0.00    +0.139 C 
BRANCH   6   7
ATOM      7  CG  ASP A   1      55.755  13.535  36.930  0.00  0.00    +0.367 C 
ATOM      8  OD2 ASP A   1      54.653  12.980  36.690  0.00  0.00    -0.246 OA
ATOM      9  OD1 ASP A   1      56.849  12.949  36.690  0.00  0.00    -0.246 OA
ENDBRANCH   6   7
ENDBRANCH   1   6
TORSDOF 4
REMARK  Name = ../refined-set-2016/2pq9/2pq9_pocket.pdb
REMARK  259 active torsions:
REMARK  status: ('A' for Active; 'I' for Inactive)
REMARK    1  A    between atoms: _1  and  _3
REMARK    2  A    between atoms: _3  and  _4
REMARK    3  A    between atoms: _3  and  _6
REMARK    4  A    between atoms: _6  and  _7
REMARK    5  A    between atoms: _9  and  _11
REMARK    6  A    between atoms: _11  and  _12
REMARK    7  A    between atoms: _11  and  _14
REMARK    8  A    between atoms: _14  and  _15
REMARK    9  A    between atoms: _15  and  _16
REMARK   10  A    between atoms: _16  and  _17
REMARK   11  A    between atoms: _17  and  _18
REMARK   12  A    between atoms: _22  and  _24
REMARK   13  A    between atoms: _24  and  _25
REMARK   14  A    between atoms: _24  and  _27
REMARK   15  A    between atoms: _27  and  _28
REMARK   16  A    between atoms: _30  and  _32
REMARK   17  A    between atoms: _32  and  _33
REMARK   18  A    between atoms: _32  and  _35
REMARK   19  A    between atoms: _38  and  _40
REMARK   20  A    between atoms: _40  and  _41
REMARK   21  A    between atoms: _40  and  _43
REMARK   22  A    between atoms: _43  and  _44
REMARK   23  A    between atoms: _46  and  _48
REMARK   24  A    between atoms: _48  and  _49
REMARK   25  A    between atoms: _48  and  _51
REMARK   26  A    between atoms: _51  and  _52
REMARK   27  A    between atoms: _57  and  _59
REMARK   28  A    between atoms: _59  and  _60
REMARK   29  A    between atoms: _59  and  _62
REMARK   30  A    between atoms: _62  and  _63
REMARK   31  A    between atoms: _63  and  _64
REMARK   32  A    between atoms: _64  and  _65
REMARK   33  A    between atoms: _74  and  _76
REMARK   34  A    between atoms: _76  and  _77
REMARK   35  A    between atoms: _76  and  _79
REMARK   36  A    between atoms: _79  and  _80
REMARK   37  A    between atoms: _83  and  _85
REMARK   38  A    between atoms: _85  and  _86
REMARK   39  A    between atoms: _85  and  _88
REMARK   40  A    between atoms: _88  and  _89
REMARK   41  A    between atoms: _92  and  _94
REMARK   42  A    between atoms: _94  and  _95
REMARK   43  A    between atoms: _97  and  _99
REMARK   44  A    between atoms: _99  and  _100
REMARK   45  A    between atoms: _99  and  _102
REMARK   46  A    between atoms: _102  and  _103
REMARK   47  A    between atoms: _108  and  _110
REMARK   48  A    between atoms: _110  and  _111
REMARK   49  A    between atoms: _114  and  _116
REMARK   50  A    between atoms: _116  and  _117
REMARK   51  A    between atoms: _119  and  _121
REMARK   52  A    between atoms: _121  and  _122
REMARK   53  A    between atoms: _121  and  _124
REMARK   54  A    between atoms: _124  and  _125
REMARK   55  A    between atoms: _128  and  _130
REMARK   56  A    between atoms: _130  and  _131
REMARK   57  A    between atoms: _134  and  _136
REMARK   58  A    between atoms: _136  and  _137
REMARK   59  A    between atoms: _136  and  _139
REMARK   60  A    between atoms: _139  and  _140
REMARK   61  A    between atoms: _140  and  _141
REMARK   62  A    between atoms: _143  and  _145
REMARK   63  A    between atoms: _145  and  _146
REMARK   64  A    between atoms: _145  and  _148
REMARK   65  A    between atoms: _148  and  _149
REMARK   66  A    between atoms: _149  and  _150
REMARK   67  A    between atoms: _150  and  _151
REMARK   68  A    between atoms: _161  and  _162
REMARK   69  A    between atoms: _167  and  _169
REMARK   70  A    between atoms: _169  and  _170
REMARK   71  A    between atoms: _169  and  _172
REMARK   72  A    between atoms: _172  and  _173
REMARK   73  A    between atoms: _173  and  _174
REMARK   74  A    between atoms: _174  and  _175
REMARK   75  A    between atoms: _184  and  _186
REMARK   76  A    between atoms: _186  and  _187
REMARK   77  A    between atoms: _186  and  _189
REMARK   78  A    between atoms: _189  and  _190
REMARK   79  A    between atoms: _190  and  _191
REMARK   80  A    between atoms: _193  and  _195
REMARK   81  A    between atoms: _195  and  _196
REMARK   82  A    between atoms: _195  and  _198
REMARK   83  A    between atoms: _198  and  _199
REMARK   84  A    between atoms: _199  and  _200
REMARK   85  A    between atoms: _200  and  _201
REMARK   86  A    between atoms: _211  and  _212
REMARK   87  A    between atoms: _217  and  _219
REMARK   88  A    between atoms: _219  and  _220
REMARK   89  A    between atoms: _222  and  _224
REMARK   90  A    between atoms: _224  and  _225
REMARK   91  A    between atoms: _224  and  _227
REMARK   92  A    between atoms: _230  and  _232
REMARK   93  A    between atoms: _232  and  _233
REMARK   94  A    between atoms: _232  and  _235
REMARK   95  A    between atoms: _235  and  _236
REMARK   96  A    between atoms: _238  and  _240
REMARK   97  A    between atoms: _240  and  _241
REMARK   98  A    between atoms: _240  and  _243
REMARK   99  A    between atoms: _243  and  _244
REMARK  100  A    between atoms: _246  and  _248
REMARK  101  A    between atoms: _248  and  _249
REMARK  102  A    between atoms: _248  and  _251
REMARK  103  A    between atoms: _251  and  _252
REMARK  104  A    between atoms: _252  and  _253
REMARK  105  A    between atoms: _258  and  _260
REMARK  106  A    between atoms: _260  and  _261
REMARK  107  A    between atoms: _260  and  _263
REMARK  108  A    between atoms: _263  and  _264
REMARK  109  A    between atoms: _270  and  _272
REMARK  110  A    between atoms: _272  and  _273
REMARK  111  A    between atoms: _272  and  _275
REMARK  112  A    between atoms: _275  and  _276
REMARK  113  A    between atoms: _279  and  _281
REMARK  114  A    between atoms: _281  and  _282
REMARK  115  A    between atoms: _281  and  _284
REMARK  116  A    between atoms: _284  and  _285
REMARK  117  A    between atoms: _288  and  _290
REMARK  118  A    between atoms: _290  and  _291
REMARK  119  A    between atoms: _294  and  _296
REMARK  120  A    between atoms: _296  and  _297
REMARK  121  A    between atoms: _296  and  _299
REMARK  122  A    between atoms: _299  and  _300
REMARK  123  A    between atoms: _303  and  _305
REMARK  124  A    between atoms: _305  and  _306
REMARK  125  A    between atoms: _305  and  _308
REMARK  126  A    between atoms: _311  and  _313
REMARK  127  A    between atoms: _313  and  _314
REMARK  128  A    between atoms: _313  and  _316
REMARK  129  A    between atoms: _316  and  _317
REMARK  130  A    between atoms: _319  and  _321
REMARK  131  A    between atoms: _321  and  _322
REMARK  132  A    between atoms: _321  and  _324
REMARK  133  A    between atoms: _324  and  _325
REMARK  134  A    between atoms: _325  and  _326
REMARK  135  A    between atoms: _326  and  _327
REMARK  136  A    between atoms: _327  and  _328
REMARK  137  A    between atoms: _333  and  _334
REMARK  138  A    between atoms: _339  and  _341
REMARK  139  A    between atoms: _341  and  _342
REMARK  140  A    between atoms: _341  and  _344
REMARK  141  A    between atoms: _344  and  _345
REMARK  142  A    between atoms: _350  and  _351
REMARK  143  A    between atoms: _353  and  _355
REMARK  144  A    between atoms: _355  and  _356
REMARK  145  A    between atoms: _355  and  _358
REMARK  146  A    between atoms: _358  and  _359
REMARK  147  A    between atoms: _362  and  _364
REMARK  148  A    between atoms: _364  and  _365
REMARK  149  A    between atoms: _364  and  _367
REMARK  150  A    between atoms: _367  and  _368
REMARK  151  A    between atoms: _371  and  _373
REMARK  152  A    between atoms: _373  and  _374
REMARK  153  A    between atoms: _373  and  _376
REMARK  154  A    between atoms: _376  and  _377
REMARK  155  A    between atoms: _380  and  _382
REMARK  156  A    between atoms: _382  and  _383
REMARK  157  A    between atoms: _382  and  _385
REMARK  158  A    between atoms: _385  and  _386
REMARK  159  A    between atoms: _389  and  _391
REMARK  160  A    between atoms: _391  and  _392
REMARK  161  A    between atoms: _391  and  _394
REMARK  162  A    between atoms: _394  and  _395
REMARK  163  A    between atoms: _397  and  _399
REMARK  164  A    between atoms: _399  and  _400
REMARK  165  A    between atoms: _399  and  _402
REMARK  166  A    between atoms: _402  and  _403
REMARK  167  A    between atoms: _408  and  _409
REMARK  168  A    between atoms: _411  and  _413
REMARK  169  A    between atoms: _413  and  _414
REMARK  170  A    between atoms: _413  and  _416
REMARK  171  A    between atoms: _416  and  _417
REMARK  172  A    between atoms: _420  and  _422
REMARK  173  A    between atoms: _422  and  _423
REMARK  174  A    between atoms: _422  and  _425
REMARK  175  A    between atoms: _425  and  _426
REMARK  176  A    between atoms: _431  and  _433
REMARK  177  A    between atoms: _433  and  _434
REMARK  178  A    between atoms: _433  and  _436
REMARK  179  A    between atoms: _436  and  _437
REMARK  180  A    between atoms: _441  and  _442
REMARK  181  A    between atoms: _447  and  _449
REMARK  182  A    between atoms: _449  and  _450
REMARK  183  A    between atoms: _449  and  _452
REMARK  184  A    between atoms: _452  and  _453
REMARK  185  A    between atoms: _456  and  _458
REMARK  186  A    between atoms: _458  and  _459
REMARK  187  A    between atoms: _462  and  _464
REMARK  188  A    between atoms: _464  and  _465
REMARK  189  A    between atoms: _464  and  _467
REMARK  190  A    between atoms: _467  and  _468
REMARK  191  A    between atoms: _468  and  _469
REMARK  192  A    between atoms: _471  and  _473
REMARK  193  A    between atoms: _473  and  _474
REMARK  194  A    between atoms: _473  and  _476
REMARK  195  A    between atoms: _476  and  _477
REMARK  196  A    between atoms: _482  and  _484
REMARK  197  A    between atoms: _484  and  _485
REMARK  198  A    between atoms: _484  and  _487
REMARK  199  A    between atoms: _487  and  _488
REMARK  200  A    between atoms: _498  and  _500
REMARK  201  A    between atoms: _500  and  _501
REMARK  202  A    between atoms: _500  and  _503
REMARK  203  A    between atoms: _506  and  _508
REMARK  204  A    between atoms: _508  and  _509
REMARK  205  A    between atoms: _508  and  _511
REMARK  206  A    between atoms: _511  and  _512
REMARK  207  A    between atoms: _512  and  _513
REMARK  208  A    between atoms: _513  and  _514
REMARK  209  A    between atoms: _514  and  _515
REMARK  210  A    between atoms: _519  and  _521
REMARK  211  A    between atoms: _521  and  _522
REMARK  212  A    between atoms: _521  and  _524
REMARK  213  A    between atoms: _524  and  _525
REMARK  214  A    between atoms: _525  and  _526
REMARK  215  A    between atoms: _529  and  _531
REMARK  216  A    between atoms: _531  and  _532
REMARK  217  A    between atoms: _531  and  _534
REMARK  218  A    between atoms: _534  and  _535
REMARK  219  A    between atoms: _538  and  _540
REMARK  220  A    between atoms: _540  and  _541
REMARK  221  A    between atoms: _540  and  _543
REMARK  222  A    between atoms: _543  and  _544
REMARK  223  A    between atoms: _544  and  _545
REMARK  224  A    between atoms: _545  and  _546
REMARK  225  A    between atoms: _555  and  _557
REMARK  226  A    between atoms: _557  and  _558
REMARK  227  A    between atoms: _557  and  _560
REMARK  228  A    between atoms: _560  and  _561
REMARK  229  A    between atoms: _564  and  _566
REMARK  230  A    between atoms: _566  and  _567
REMARK  231  A    between atoms: _566  and  _569
REMARK  232  A    between atoms: _569  and  _570
REMARK  233  A    between atoms: _575  and  _577
REMARK  234  A    between atoms: _577  and  _578
REMARK  235  A    between atoms: _577  and  _580
REMARK  236  A    between atoms: _580  and  _581
REMARK  237  A    between atoms: _581  and  _582
REMARK  238  A    between atoms: _582  and  _583
REMARK  239  A    between atoms: _592  and  _594
REMARK  240  A    between atoms: _594  and  _595
REMARK  241  A    between atoms: _594  and  _597
REMARK  242  A    between atoms: _597  and  _598
REMARK  243  A    between atoms: _598  and  _599
REMARK  244  A    between atoms: _601  and  _603
REMARK  245  A    between atoms: _603  and  _604
REMARK  246  A    between atoms: _603  and  _606
REMARK  247  A    between atoms: _606  and  _607
REMARK  248  A    between atoms: _607  and  _608
REMARK  249  A    between atoms: _610  and  _612
REMARK  250  A    between atoms: _612  and  _613
REMARK  251  A    between atoms: _612  and  _615
REMARK  252  A    between atoms: _615  and  _616
REMARK  253  A    between atoms: _616  and  _617
REMARK  254  A    between atoms: _617  and  _618
REMARK  255  A    between atoms: _618  and  _619
REMARK  256  A    between atoms: _623  and  _625
REMARK  257  A    between atoms: _625  and  _626
REMARK  258  A    between atoms: _625  and  _628
REMARK  259  A    between atoms: _628  and  _629
REMARK                            x       y       z     vdW  Elec       q    Type
REMARK                         _______ _______ _______ _____ _____    ______ ____
ROOT
ATOM      1  CB  ASN A   1      47.225   5.953  34.884  0.00  0.00    +0.110 C 
ENDROOT
BRANCH   1   2
ATOM      2  CG  ASN A   1      47.405   5.806  33.385  0.00  0.00    +0.221 C 
ATOM      3  ND2 ASN A   1      47.938   4.668  32.971  0.00  0.00    -0.329 N 
ATOM      4 HD21 ASN A   1      48.185   3.929  33.659  0.00  0.00    +0.145 HD
ATOM      5 HD22 ASN A   1      48.110   4.513  31.957  0.00  0.00    +0.145 HD
ATOM      6  OD1 ASN A   1      47.093   6.717  32.610  0.00  0.00    -0.275 OA
ENDBRANCH   1   2
BRANCH   1   7
ATOM      7  CA  ASN A   1      48.505   6.433  35.570  0.00  0.00    +0.142 C 
BRANCH   7   8
ATOM      8  N   ASN A   1      48.419   6.170  37.006  0.00  0.00    -0.239 NA
ATOM      9  H   ASN A   1      47.559   5.747  37.409  0.00  0.00    +0.142 HD
ENDBRANCH   7   8
BRANCH   7  10
ATOM     10  C   ASN A   1      48.796   7.891  35.182  0.00  0.00    +0.225 C 
ATOM     11  O   ASN A   1      49.396   8.154  34.117  0.00  0.00    -0.287 OA
ENDBRANCH   7  10
ENDBRANCH   1   7
TORSDOF 4
REMARK  Name = ../refined-set-2016/2pq9/2pq9_pocket.pdb
REMARK  259 active torsions:
REMARK  status: ('A' for Active; 'I' for Inactive)
REMARK    1  A    between atoms: _1  and  _3
REMARK    2  A    between atoms: _3  and  _4
REMARK    3  A    between atoms: _3  and  _6
REMARK    4  A    between atoms: _6  and  _7
REMARK    5  A    between atoms: _9  and  _11
REMARK    6  A    between atoms: _11  and  _12
REMARK    7  A    between atoms: _11  and  _14
REMARK    8  A    between atoms: _14  and  _15
REMARK    9  A    between atoms: _15  and  _16
REMARK   10  A    between atoms: _16  and  _17
REMARK   11  A    between atoms: _17  and  _18
REMARK   12  A    between atoms: _22  and  _24
REMARK   13  A    between atoms: _24  and  _25
REMARK   14  A    between atoms: _24  and  _27
REMARK   15  A    between atoms: _27  and  _28
REMARK   16  A    between atoms: _30  and  _32
REMARK   17  A    between atoms: _32  and  _33
REMARK   18  A    between atoms: _32  and  _35
REMARK   19  A    between atoms: _38  and  _40
REMARK   20  A    between atoms: _40  and  _41
REMARK   21  A    between atoms: _40  and  _43
REMARK   22  A    between atoms: _43  and  _44
REMARK   23  A    between atoms: _46  and  _48
REMARK   24  A    between atoms: _48  and  _49
REMARK   25  A    between atoms: _48  and  _51
REMARK   26  A    between atoms: _51  and  _52
REMARK   27  A    between atoms: _57  and  _59
REMARK   28  A    between atoms: _59  and  _60
REMARK   29  A    between atoms: _59  and  _62
REMARK   30  A    between atoms: _62  and  _63
REMARK   31  A    between atoms: _63  and  _64
REMARK   32  A    between atoms: _64  and  _65
REMARK   33  A    between atoms: _74  and  _76
REMARK   34  A    between atoms: _76  and  _77
REMARK   35  A    between atoms: _76  and  _79
REMARK   36  A    between atoms: _79  and  _80
REMARK   37  A    between atoms: _83  and  _85
REMARK   38  A    between atoms: _85  and  _86
REMARK   39  A    between atoms: _85  and  _88
REMARK   40  A    between atoms: _88  and  _89
REMARK   41  A    between atoms: _92  and  _94
REMARK   42  A    between atoms: _94  and  _95
REMARK   43  A    between atoms: _97  and  _99
REMARK   44  A    between atoms: _99  and  _100
REMARK   45  A    between atoms: _99  and  _102
REMARK   46  A    between atoms: _102  and  _103
REMARK   47  A    between atoms: _108  and  _110
REMARK   48  A    between atoms: _110  and  _111
REMARK   49  A    between atoms: _114  and  _116
REMARK   50  A    between atoms: _116  and  _117
REMARK   51  A    between atoms: _119  and  _121
REMARK   52  A    between atoms: _121  and  _122
REMARK   53  A    between atoms: _121  and  _124
REMARK   54  A    between atoms: _124  and  _125
REMARK   55  A    between atoms: _128  and  _130
REMARK   56  A    between atoms: _130  and  _131
REMARK   57  A    between atoms: _134  and  _136
REMARK   58  A    between atoms: _136  and  _137
REMARK   59  A    between atoms: _136  and  _139
REMARK   60  A    between atoms: _139  and  _140
REMARK   61  A    between atoms: _140  and  _141
REMARK   62  A    between atoms: _143  and  _145
REMARK   63  A    between atoms: _145  and  _146
REMARK   64  A    between atoms: _145  and  _148
REMARK   65  A    between atoms: _148  and  _149
REMARK   66  A    between atoms: _149  and  _150
REMARK   67  A    between atoms: _150  and  _151
REMARK   68  A    between atoms: _161  and  _162
REMARK   69  A    between atoms: _167  and  _169
REMARK   70  A    between atoms: _169  and  _170
REMARK   71  A    between atoms: _169  and  _172
REMARK   72  A    between atoms: _172  and  _173
REMARK   73  A    between atoms: _173  and  _174
REMARK   74  A    between atoms: _174  and  _175
REMARK   75  A    between atoms: _184  and  _186
REMARK   76  A    between atoms: _186  and  _187
REMARK   77  A    between atoms: _186  and  _189
REMARK   78  A    between atoms: _189  and  _190
REMARK   79  A    between atoms: _190  and  _191
REMARK   80  A    between atoms: _193  and  _195
REMARK   81  A    between atoms: _195  and  _196
REMARK   82  A    between atoms: _195  and  _198
REMARK   83  A    between atoms: _198  and  _199
REMARK   84  A    between atoms: _199  and  _200
REMARK   85  A    between atoms: _200  and  _201
REMARK   86  A    between atoms: _211  and  _212
REMARK   87  A    between atoms: _217  and  _219
REMARK   88  A    between atoms: _219  and  _220
REMARK   89  A    between atoms: _222  and  _224
REMARK   90  A    between atoms: _224  and  _225
REMARK   91  A    between atoms: _224  and  _227
REMARK   92  A    between atoms: _230  and  _232
REMARK   93  A    between atoms: _232  and  _233
REMARK   94  A    between atoms: _232  and  _235
REMARK   95  A    between atoms: _235  and  _236
REMARK   96  A    between atoms: _238  and  _240
REMARK   97  A    between atoms: _240  and  _241
REMARK   98  A    between atoms: _240  and  _243
REMARK   99  A    between atoms: _243  and  _244
REMARK  100  A    between atoms: _246  and  _248
REMARK  101  A    between atoms: _248  and  _249
REMARK  102  A    between atoms: _248  and  _251
REMARK  103  A    between atoms: _251  and  _252
REMARK  104  A    between atoms: _252  and  _253
REMARK  105  A    between atoms: _258  and  _260
REMARK  106  A    between atoms: _260  and  _261
REMARK  107  A    between atoms: _260  and  _263
REMARK  108  A    between atoms: _263  and  _264
REMARK  109  A    between atoms: _270  and  _272
REMARK  110  A    between atoms: _272  and  _273
REMARK  111  A    between atoms: _272  and  _275
REMARK  112  A    between atoms: _275  and  _276
REMARK  113  A    between atoms: _279  and  _281
REMARK  114  A    between atoms: _281  and  _282
REMARK  115  A    between atoms: _281  and  _284
REMARK  116  A    between atoms: _284  and  _285
REMARK  117  A    between atoms: _288  and  _290
REMARK  118  A    between atoms: _290  and  _291
REMARK  119  A    between atoms: _294  and  _296
REMARK  120  A    between atoms: _296  and  _297
REMARK  121  A    between atoms: _296  and  _299
REMARK  122  A    between atoms: _299  and  _300
REMARK  123  A    between atoms: _303  and  _305
REMARK  124  A    between atoms: _305  and  _306
REMARK  125  A    between atoms: _305  and  _308
REMARK  126  A    between atoms: _311  and  _313
REMARK  127  A    between atoms: _313  and  _314
REMARK  128  A    between atoms: _313  and  _316
REMARK  129  A    between atoms: _316  and  _317
REMARK  130  A    between atoms: _319  and  _321
REMARK  131  A    between atoms: _321  and  _322
REMARK  132  A    between atoms: _321  and  _324
REMARK  133  A    between atoms: _324  and  _325
REMARK  134  A    between atoms: _325  and  _326
REMARK  135  A    between atoms: _326  and  _327
REMARK  136  A    between atoms: _327  and  _328
REMARK  137  A    between atoms: _333  and  _334
REMARK  138  A    between atoms: _339  and  _341
REMARK  139  A    between atoms: _341  and  _342
REMARK  140  A    between atoms: _341  and  _344
REMARK  141  A    between atoms: _344  and  _345
REMARK  142  A    between atoms: _350  and  _351
REMARK  143  A    between atoms: _353  and  _355
REMARK  144  A    between atoms: _355  and  _356
REMARK  145  A    between atoms: _355  and  _358
REMARK  146  A    between atoms: _358  and  _359
REMARK  147  A    between atoms: _362  and  _364
REMARK  148  A    between atoms: _364  and  _365
REMARK  149  A    between atoms: _364  and  _367
REMARK  150  A    between atoms: _367  and  _368
REMARK  151  A    between atoms: _371  and  _373
REMARK  152  A    between atoms: _373  and  _374
REMARK  153  A    between atoms: _373  and  _376
REMARK  154  A    between atoms: _376  and  _377
REMARK  155  A    between atoms: _380  and  _382
REMARK  156  A    between atoms: _382  and  _383
REMARK  157  A    between atoms: _382  and  _385
REMARK  158  A    between atoms: _385  and  _386
REMARK  159  A    between atoms: _389  and  _391
REMARK  160  A    between atoms: _391  and  _392
REMARK  161  A    between atoms: _391  and  _394
REMARK  162  A    between atoms: _394  and  _395
REMARK  163  A    between atoms: _397  and  _399
REMARK  164  A    between atoms: _399  and  _400
REMARK  165  A    between atoms: _399  and  _402
REMARK  166  A    between atoms: _402  and  _403
REMARK  167  A    between atoms: _408  and  _409
REMARK  168  A    between atoms: _411  and  _413
REMARK  169  A    between atoms: _413  and  _414
REMARK  170  A    between atoms: _413  and  _416
REMARK  171  A    between atoms: _416  and  _417
REMARK  172  A    between atoms: _420  and  _422
REMARK  173  A    between atoms: _422  and  _423
REMARK  174  A    between atoms: _422  and  _425
REMARK  175  A    between atoms: _425  and  _426
REMARK  176  A    between atoms: _431  and  _433
REMARK  177  A    between atoms: _433  and  _434
REMARK  178  A    between atoms: _433  and  _436
REMARK  179  A    between atoms: _436  and  _437
REMARK  180  A    between atoms: _441  and  _442
REMARK  181  A    between atoms: _447  and  _449
REMARK  182  A    between atoms: _449  and  _450
REMARK  183  A    between atoms: _449  and  _452
REMARK  184  A    between atoms: _452  and  _453
REMARK  185  A    between atoms: _456  and  _458
REMARK  186  A    between atoms: _458  and  _459
REMARK  187  A    between atoms: _462  and  _464
REMARK  188  A    between atoms: _464  and  _465
REMARK  189  A    between atoms: _464  and  _467
REMARK  190  A    between atoms: _467  and  _468
REMARK  191  A    between atoms: _468  and  _469
REMARK  192  A    between atoms: _471  and  _473
REMARK  193  A    between atoms: _473  and  _474
REMARK  194  A    between atoms: _473  and  _476
REMARK  195  A    between atoms: _476  and  _477
REMARK  196  A    between atoms: _482  and  _484
REMARK  197  A    between atoms: _484  and  _485
REMARK  198  A    between atoms: _484  and  _487
REMARK  199  A    between atoms: _487  and  _488
REMARK  200  A    between atoms: _498  and  _500
REMARK  201  A    between atoms: _500  and  _501
REMARK  202  A    between atoms: _500  and  _503
REMARK  203  A    between atoms: _506  and  _508
REMARK  204  A    between atoms: _508  and  _509
REMARK  205  A    between atoms: _508  and  _511
REMARK  206  A    between atoms: _511  and  _512
REMARK  207  A    between atoms: _512  and  _513
REMARK  208  A    between atoms: _513  and  _514
REMARK  209  A    between atoms: _514  and  _515
REMARK  210  A    between atoms: _519  and  _521
REMARK  211  A    between atoms: _521  and  _522
REMARK  212  A    between atoms: _521  and  _524
REMARK  213  A    between atoms: _524  and  _525
REMARK  214  A    between atoms: _525  and  _526
REMARK  215  A    between atoms: _529  and  _531
REMARK  216  A    between atoms: _531  and  _532
REMARK  217  A    between atoms: _531  and  _534
REMARK  218  A    between atoms: _534  and  _535
REMARK  219  A    between atoms: _538  and  _540
REMARK  220  A    between atoms: _540  and  _541
REMARK  221  A    between atoms: _540  and  _543
REMARK  222  A    between atoms: _543  and  _544
REMARK  223  A    between atoms: _544  and  _545
REMARK  224  A    between atoms: _545  and  _546
REMARK  225  A    between atoms: _555  and  _557
REMARK  226  A    between atoms: _557  and  _558
REMARK  227  A    between atoms: _557  and  _560
REMARK  228  A    between atoms: _560  and  _561
REMARK  229  A    between atoms: _564  and  _566
REMARK  230  A    between atoms: _566  and  _567
REMARK  231  A    between atoms: _566  and  _569
REMARK  232  A    between atoms: _569  and  _570
REMARK  233  A    between atoms: _575  and  _577
REMARK  234  A    between atoms: _577  and  _578
REMARK  235  A    between atoms: _577  and  _580
REMARK  236  A    between atoms: _580  and  _581
REMARK  237  A    between atoms: _581  and  _582
REMARK  238  A    between atoms: _582  and  _583
REMARK  239  A    between atoms: _592  and  _594
REMARK  240  A    between atoms: _594  and  _595
REMARK  241  A    between atoms: _594  and  _597
REMARK  242  A    between atoms: _597  and  _598
REMARK  243  A    between atoms: _598  and  _599
REMARK  244  A    between atoms: _601  and  _603
REMARK  245  A    between atoms: _603  and  _604
REMARK  246  A    between atoms: _603  and  _606
REMARK  247  A    between atoms: _606  and  _607
REMARK  248  A    between atoms: _607  and  _608
REMARK  249  A    between atoms: _610  and  _612
REMARK  250  A    between atoms: _612  and  _613
REMARK  251  A    between atoms: _612  and  _615
REMARK  252  A    between atoms: _615  and  _616
REMARK  253  A    between atoms: _616  and  _617
REMARK  254  A    between atoms: _617  and  _618
REMARK  255  A    between atoms: _618  and  _619
REMARK  256  A    between atoms: _623  and  _625
REMARK  257  A    between atoms: _625  and  _626
REMARK  258  A    between atoms: _625  and  _628
REMARK  259  A    between atoms: _628  and  _629
REMARK                            x       y       z     vdW  Elec       q    Type
REMARK                         _______ _______ _______ _____ _____    ______ ____
ROOT
ATOM      1  C   PRO A   2      55.464   7.284  36.021  0.00  0.00    +0.241 C 
ATOM      2  O   PRO A   2      56.009   6.333  36.601  0.00  0.00    -0.273 OA
ATOM      3  N   ASP A   3      56.121   8.394  35.692  0.00  0.00    -0.297 N 
ATOM      4  H   ASP A   3      55.626   9.179  35.221  0.00  0.00    +0.150 HD
ENDROOT
BRANCH   1   8
ATOM      5  C   ILE A   1      53.122   9.064  36.946  0.00  0.00    +0.241 C 
ATOM      6  O   ILE A   1      53.806   8.705  37.911  0.00  0.00    -0.273 OA
ATOM      7  N   PRO A   2      53.176   8.423  35.771  0.00  0.00    -0.272 N 
ATOM      8  CA  PRO A   2      53.979   7.209  35.652  0.00  0.00    +0.152 C 
ATOM      9  CB  PRO A   2      53.734   6.776  34.200  0.00  0.00    +0.031 C 
ATOM     10  CG  PRO A   2      53.607   8.109  33.483  0.00  0.00    +0.024 C 
ATOM     11  CD  PRO A   2      52.739   8.921  34.450  0.00  0.00    +0.094 C 
BRANCH   5  12
ATOM     12  CA  ILE A   1      52.235  10.311  37.020  0.00  0.00    +0.145 C 
BRANCH  12  13
ATOM     13  N   ILE A   1      50.831   9.918  36.714  0.00  0.00    -0.238 NA
ATOM     14  H   ILE A   1      50.470   9.001  37.047  0.00  0.00    +0.142 HD
ENDBRANCH  12  13
BRANCH  12  15
ATOM     15  CB  ILE A   1      52.369  10.932  38.445  0.00  0.00    +0.025 C 
ATOM     16  CG2 ILE A   1      51.711  12.293  38.482  0.00  0.00    +0.002 C 
BRANCH  15  17
ATOM     17  CG1 ILE A   1      51.710  10.027  39.496  0.00  0.00    +0.002 C 
ATOM     18  CD1 ILE A   1      51.980  10.497  40.929  0.00  0.00    +0.000 C 
ENDBRANCH  15  17
ENDBRANCH  12  15
ENDBRANCH   5  12
ENDBRANCH   1   8
BRANCH   3  19
ATOM     19  CA  ASP A   3      57.553   8.497  36.002  0.00  0.00    +0.160 C 
BRANCH  19  20
ATOM     20  C   ASP A   3      57.792   8.808  37.473  0.00  0.00    +0.241 C 
ATOM     21  O   ASP A   3      58.570   8.109  38.151  0.00  0.00    -0.273 OA
ATOM     22  N   ALA A   4      57.150   9.856  37.980  0.00  0.00    -0.298 N 
ATOM     23  H   ALA A   4      56.543  10.447  37.376  0.00  0.00    +0.150 HD
BRANCH  22  24
ATOM     24  CA  ALA A   4      57.309  10.164  39.393  0.00  0.00    +0.137 C 
ATOM     25  CB  ALA A   4      56.602  11.483  39.729  0.00  0.00    +0.030 C 
BRANCH  24  26
ATOM     26  C   ALA A   4      56.793   9.011  40.281  0.00  0.00    +0.227 C 
ATOM     27  O   ALA A   4      57.227   8.858  41.420  0.00  0.00    -0.286 OA
ENDBRANCH  24  26
ENDBRANCH  22  24
ENDBRANCH  19  20
BRANCH  19  28
ATOM     28  CB  ASP A   3      58.218   9.558  35.128  0.00  0.00    +0.143 C 
BRANCH  28  29
ATOM     29  CG  ASP A   3      58.453   9.090  33.697  0.00  0.00    +0.367 C 
ATOM     30  OD2 ASP A   3      58.403   7.873  33.396  0.00  0.00    -0.246 OA
ATOM     31  OD1 ASP A   3      58.729   9.973  32.864  0.00  0.00    -0.246 OA
ENDBRANCH  28  29
ENDBRANCH  19  28
ENDBRANCH   3  19
TORSDOF 11
REMARK  Name = ../refined-set-2016/2pq9/2pq9_pocket.pdb
REMARK  259 active torsions:
REMARK  status: ('A' for Active; 'I' for Inactive)
REMARK    1  A    between atoms: _1  and  _3
REMARK    2  A    between atoms: _3  and  _4
REMARK    3  A    between atoms: _3  and  _6
REMARK    4  A    between atoms: _6  and  _7
REMARK    5  A    between atoms: _9  and  _11
REMARK    6  A    between atoms: _11  and  _12
REMARK    7  A    between atoms: _11  and  _14
REMARK    8  A    between atoms: _14  and  _15
REMARK    9  A    between atoms: _15  and  _16
REMARK   10  A    between atoms: _16  and  _17
REMARK   11  A    between atoms: _17  and  _18
REMARK   12  A    between atoms: _22  and  _24
REMARK   13  A    between atoms: _24  and  _25
REMARK   14  A    between atoms: _24  and  _27
REMARK   15  A    between atoms: _27  and  _28
REMARK   16  A    between atoms: _30  and  _32
REMARK   17  A    between atoms: _32  and  _33
REMARK   18  A    between atoms: _32  and  _35
REMARK   19  A    between atoms: _38  and  _40
REMARK   20  A    between atoms: _40  and  _41
REMARK   21  A    between atoms: _40  and  _43
REMARK   22  A    between atoms: _43  and  _44
REMARK   23  A    between atoms: _46  and  _48
REMARK   24  A    between atoms: _48  and  _49
REMARK   25  A    between atoms: _48  and  _51
REMARK   26  A    between atoms: _51  and  _52
REMARK   27  A    between atoms: _57  and  _59
REMARK   28  A    between atoms: _59  and  _60
REMARK   29  A    between atoms: _59  and  _62
REMARK   30  A    between atoms: _62  and  _63
REMARK   31  A    between atoms: _63  and  _64
REMARK   32  A    between atoms: _64  and  _65
REMARK   33  A    between atoms: _74  and  _76
REMARK   34  A    between atoms: _76  and  _77
REMARK   35  A    between atoms: _76  and  _79
REMARK   36  A    between atoms: _79  and  _80
REMARK   37  A    between atoms: _83  and  _85
REMARK   38  A    between atoms: _85  and  _86
REMARK   39  A    between atoms: _85  and  _88
REMARK   40  A    between atoms: _88  and  _89
REMARK   41  A    between atoms: _92  and  _94
REMARK   42  A    between atoms: _94  and  _95
REMARK   43  A    between atoms: _97  and  _99
REMARK   44  A    between atoms: _99  and  _100
REMARK   45  A    between atoms: _99  and  _102
REMARK   46  A    between atoms: _102  and  _103
REMARK   47  A    between atoms: _108  and  _110
REMARK   48  A    between atoms: _110  and  _111
REMARK   49  A    between atoms: _114  and  _116
REMARK   50  A    between atoms: _116  and  _117
REMARK   51  A    between atoms: _119  and  _121
REMARK   52  A    between atoms: _121  and  _122
REMARK   53  A    between atoms: _121  and  _124
REMARK   54  A    between atoms: _124  and  _125
REMARK   55  A    between atoms: _128  and  _130
REMARK   56  A    between atoms: _130  and  _131
REMARK   57  A    between atoms: _134  and  _136
REMARK   58  A    between atoms: _136  and  _137
REMARK   59  A    between atoms: _136  and  _139
REMARK   60  A    between atoms: _139  and  _140
REMARK   61  A    between atoms: _140  and  _141
REMARK   62  A    between atoms: _143  and  _145
REMARK   63  A    between atoms: _145  and  _146
REMARK   64  A    between atoms: _145  and  _148
REMARK   65  A    between atoms: _148  and  _149
REMARK   66  A    between atoms: _149  and  _150
REMARK   67  A    between atoms: _150  and  _151
REMARK   68  A    between atoms: _161  and  _162
REMARK   69  A    between atoms: _167  and  _169
REMARK   70  A    between atoms: _169  and  _170
REMARK   71  A    between atoms: _169  and  _172
REMARK   72  A    between atoms: _172  and  _173
REMARK   73  A    between atoms: _173  and  _174
REMARK   74  A    between atoms: _174  and  _175
REMARK   75  A    between atoms: _184  and  _186
REMARK   76  A    between atoms: _186  and  _187
REMARK   77  A    between atoms: _186  and  _189
REMARK   78  A    between atoms: _189  and  _190
REMARK   79  A    between atoms: _190  and  _191
REMARK   80  A    between atoms: _193  and  _195
REMARK   81  A    between atoms: _195  and  _196
REMARK   82  A    between atoms: _195  and  _198
REMARK   83  A    between atoms: _198  and  _199
REMARK   84  A    between atoms: _199  and  _200
REMARK   85  A    between atoms: _200  and  _201
REMARK   86  A    between atoms: _211  and  _212
REMARK   87  A    between atoms: _217  and  _219
REMARK   88  A    between atoms: _219  and  _220
REMARK   89  A    between atoms: _222  and  _224
REMARK   90  A    between atoms: _224  and  _225
REMARK   91  A    between atoms: _224  and  _227
REMARK   92  A    between atoms: _230  and  _232
REMARK   93  A    between atoms: _232  and  _233
REMARK   94  A    between atoms: _232  and  _235
REMARK   95  A    between atoms: _235  and  _236
REMARK   96  A    between atoms: _238  and  _240
REMARK   97  A    between atoms: _240  and  _241
REMARK   98  A    between atoms: _240  and  _243
REMARK   99  A    between atoms: _243  and  _244
REMARK  100  A    between atoms: _246  and  _248
REMARK  101  A    between atoms: _248  and  _249
REMARK  102  A    between atoms: _248  and  _251
REMARK  103  A    between atoms: _251  and  _252
REMARK  104  A    between atoms: _252  and  _253
REMARK  105  A    between atoms: _258  and  _260
REMARK  106  A    between atoms: _260  and  _261
REMARK  107  A    between atoms: _260  and  _263
REMARK  108  A    between atoms: _263  and  _264
REMARK  109  A    between atoms: _270  and  _272
REMARK  110  A    between atoms: _272  and  _273
REMARK  111  A    between atoms: _272  and  _275
REMARK  112  A    between atoms: _275  and  _276
REMARK  113  A    between atoms: _279  and  _281
REMARK  114  A    between atoms: _281  and  _282
REMARK  115  A    between atoms: _281  and  _284
REMARK  116  A    between atoms: _284  and  _285
REMARK  117  A    between atoms: _288  and  _290
REMARK  118  A    between atoms: _290  and  _291
REMARK  119  A    between atoms: _294  and  _296
REMARK  120  A    between atoms: _296  and  _297
REMARK  121  A    between atoms: _296  and  _299
REMARK  122  A    between atoms: _299  and  _300
REMARK  123  A    between atoms: _303  and  _305
REMARK  124  A    between atoms: _305  and  _306
REMARK  125  A    between atoms: _305  and  _308
REMARK  126  A    between atoms: _311  and  _313
REMARK  127  A    between atoms: _313  and  _314
REMARK  128  A    between atoms: _313  and  _316
REMARK  129  A    between atoms: _316  and  _317
REMARK  130  A    between atoms: _319  and  _321
REMARK  131  A    between atoms: _321  and  _322
REMARK  132  A    between atoms: _321  and  _324
REMARK  133  A    between atoms: _324  and  _325
REMARK  134  A    between atoms: _325  and  _326
REMARK  135  A    between atoms: _326  and  _327
REMARK  136  A    between atoms: _327  and  _328
REMARK  137  A    between atoms: _333  and  _334
REMARK  138  A    between atoms: _339  and  _341
REMARK  139  A    between atoms: _341  and  _342
REMARK  140  A    between atoms: _341  and  _344
REMARK  141  A    between atoms: _344  and  _345
REMARK  142  A    between atoms: _350  and  _351
REMARK  143  A    between atoms: _353  and  _355
REMARK  144  A    between atoms: _355  and  _356
REMARK  145  A    between atoms: _355  and  _358
REMARK  146  A    between atoms: _358  and  _359
REMARK  147  A    between atoms: _362  and  _364
REMARK  148  A    between atoms: _364  and  _365
REMARK  149  A    between atoms: _364  and  _367
REMARK  150  A    between atoms: _367  and  _368
REMARK  151  A    between atoms: _371  and  _373
REMARK  152  A    between atoms: _373  and  _374
REMARK  153  A    between atoms: _373  and  _376
REMARK  154  A    between atoms: _376  and  _377
REMARK  155  A    between atoms: _380  and  _382
REMARK  156  A    between atoms: _382  and  _383
REMARK  157  A    between atoms: _382  and  _385
REMARK  158  A    between atoms: _385  and  _386
REMARK  159  A    between atoms: _389  and  _391
REMARK  160  A    between atoms: _391  and  _392
REMARK  161  A    between atoms: _391  and  _394
REMARK  162  A    between atoms: _394  and  _395
REMARK  163  A    between atoms: _397  and  _399
REMARK  164  A    between atoms: _399  and  _400
REMARK  165  A    between atoms: _399  and  _402
REMARK  166  A    between atoms: _402  and  _403
REMARK  167  A    between atoms: _408  and  _409
REMARK  168  A    between atoms: _411  and  _413
REMARK  169  A    between atoms: _413  and  _414
REMARK  170  A    between atoms: _413  and  _416
REMARK  171  A    between atoms: _416  and  _417
REMARK  172  A    between atoms: _420  and  _422
REMARK  173  A    between atoms: _422  and  _423
REMARK  174  A    between atoms: _422  and  _425
REMARK  175  A    between atoms: _425  and  _426
REMARK  176  A    between atoms: _431  and  _433
REMARK  177  A    between atoms: _433  and  _434
REMARK  178  A    between atoms: _433  and  _436
REMARK  179  A    between atoms: _436  and  _437
REMARK  180  A    between atoms: _441  and  _442
REMARK  181  A    between atoms: _447  and  _449
REMARK  182  A    between atoms: _449  and  _450
REMARK  183  A    between atoms: _449  and  _452
REMARK  184  A    between atoms: _452  and  _453
REMARK  185  A    between atoms: _456  and  _458
REMARK  186  A    between atoms: _458  and  _459
REMARK  187  A    between atoms: _462  and  _464
REMARK  188  A    between atoms: _464  and  _465
REMARK  189  A    between atoms: _464  and  _467
REMARK  190  A    between atoms: _467  and  _468
REMARK  191  A    between atoms: _468  and  _469
REMARK  192  A    between atoms: _471  and  _473
REMARK  193  A    between atoms: _473  and  _474
REMARK  194  A    between atoms: _473  and  _476
REMARK  195  A    between atoms: _476  and  _477
REMARK  196  A    between atoms: _482  and  _484
REMARK  197  A    between atoms: _484  and  _485
REMARK  198  A    between atoms: _484  and  _487
REMARK  199  A    between atoms: _487  and  _488
REMARK  200  A    between atoms: _498  and  _500
REMARK  201  A    between atoms: _500  and  _501
REMARK  202  A    between atoms: _500  and  _503
REMARK  203  A    between atoms: _506  and  _508
REMARK  204  A    between atoms: _508  and  _509
REMARK  205  A    between atoms: _508  and  _511
REMARK  206  A    between atoms: _511  and  _512
REMARK  207  A    between atoms: _512  and  _513
REMARK  208  A    between atoms: _513  and  _514
REMARK  209  A    between atoms: _514  and  _515
REMARK  210  A    between atoms: _519  and  _521
REMARK  211  A    between atoms: _521  and  _522
REMARK  212  A    between atoms: _521  and  _524
REMARK  213  A    between atoms: _524  and  _525
REMARK  214  A    between atoms: _525  and  _526
REMARK  215  A    between atoms: _529  and  _531
REMARK  216  A    between atoms: _531  and  _532
REMARK  217  A    between atoms: _531  and  _534
REMARK  218  A    between atoms: _534  and  _535
REMARK  219  A    between atoms: _538  and  _540
REMARK  220  A    between atoms: _540  and  _541
REMARK  221  A    between atoms: _540  and  _543
REMARK  222  A    between atoms: _543  and  _544
REMARK  223  A    between atoms: _544  and  _545
REMARK  224  A    between atoms: _545  and  _546
REMARK  225  A    between atoms: _555  and  _557
REMARK  226  A    between atoms: _557  and  _558
REMARK  227  A    between atoms: _557  and  _560
REMARK  228  A    between atoms: _560  and  _561
REMARK  229  A    between atoms: _564  and  _566
REMARK  230  A    between atoms: _566  and  _567
REMARK  231  A    between atoms: _566  and  _569
REMARK  232  A    between atoms: _569  and  _570
REMARK  233  A    between atoms: _575  and  _577
REMARK  234  A    between atoms: _577  and  _578
REMARK  235  A    between atoms: _577  and  _580
REMARK  236  A    between atoms: _580  and  _581
REMARK  237  A    between atoms: _581  and  _582
REMARK  238  A    between atoms: _582  and  _583
REMARK  239  A    between atoms: _592  and  _594
REMARK  240  A    between atoms: _594  and  _595
REMARK  241  A    between atoms: _594  and  _597
REMARK  242  A    between atoms: _597  and  _598
REMARK  243  A    between atoms: _598  and  _599
REMARK  244  A    between atoms: _601  and  _603
REMARK  245  A    between atoms: _603  and  _604
REMARK  246  A    between atoms: _603  and  _606
REMARK  247  A    between atoms: _606  and  _607
REMARK  248  A    between atoms: _607  and  _608
REMARK  249  A    between atoms: _610  and  _612
REMARK  250  A    between atoms: _612  and  _613
REMARK  251  A    between atoms: _612  and  _615
REMARK  252  A    between atoms: _615  and  _616
REMARK  253  A    between atoms: _616  and  _617
REMARK  254  A    between atoms: _617  and  _618
REMARK  255  A    between atoms: _618  and  _619
REMARK  256  A    between atoms: _623  and  _625
REMARK  257  A    between atoms: _625  and  _626
REMARK  258  A    between atoms: _625  and  _628
REMARK  259  A    between atoms: _628  and  _629
REMARK                            x       y       z     vdW  Elec       q    Type
REMARK                         _______ _______ _______ _____ _____    ______ ____
ROOT
ATOM      1  CA  MET A   1      58.690   5.121  40.379  0.00  0.00    +0.134 C 
ENDROOT
BRANCH   1   2
ATOM      2  N   MET A   1      57.569   6.001  40.063  0.00  0.00    -0.239 NA
ATOM      3  H   MET A   1      57.559   6.548  39.178  0.00  0.00    +0.142 HD
ENDBRANCH   1   2
BRANCH   1   4
ATOM      4  C   MET A   1      59.345   5.579  41.688  0.00  0.00    +0.224 C 
ATOM      5  O   MET A   1      59.830   4.749  42.476  0.00  0.00    -0.287 OA
ENDBRANCH   1   4
BRANCH   1   6
ATOM      6  CB  MET A   1      59.744   5.136  39.262  0.00  0.00    +0.037 C 
BRANCH   6   7
ATOM      7  CG  MET A   1      59.269   4.641  37.907  0.00  0.00    +0.059 C 
BRANCH   7   8
ATOM      8  SD  MET A   1      60.571   4.805  36.639  0.00  0.00    -0.139 S 
ATOM      9  CE  MET A   1      61.833   3.576  37.246  0.00  0.00    +0.069 C 
ENDBRANCH   7   8
ENDBRANCH   6   7
ENDBRANCH   1   6
TORSDOF 5
REMARK  Name = ../refined-set-2016/2pq9/2pq9_pocket.pdb
REMARK  259 active torsions:
REMARK  status: ('A' for Active; 'I' for Inactive)
REMARK    1  A    between atoms: _1  and  _3
REMARK    2  A    between atoms: _3  and  _4
REMARK    3  A    between atoms: _3  and  _6
REMARK    4  A    between atoms: _6  and  _7
REMARK    5  A    between atoms: _9  and  _11
REMARK    6  A    between atoms: _11  and  _12
REMARK    7  A    between atoms: _11  and  _14
REMARK    8  A    between atoms: _14  and  _15
REMARK    9  A    between atoms: _15  and  _16
REMARK   10  A    between atoms: _16  and  _17
REMARK   11  A    between atoms: _17  and  _18
REMARK   12  A    between atoms: _22  and  _24
REMARK   13  A    between atoms: _24  and  _25
REMARK   14  A    between atoms: _24  and  _27
REMARK   15  A    between atoms: _27  and  _28
REMARK   16  A    between atoms: _30  and  _32
REMARK   17  A    between atoms: _32  and  _33
REMARK   18  A    between atoms: _32  and  _35
REMARK   19  A    between atoms: _38  and  _40
REMARK   20  A    between atoms: _40  and  _41
REMARK   21  A    between atoms: _40  and  _43
REMARK   22  A    between atoms: _43  and  _44
REMARK   23  A    between atoms: _46  and  _48
REMARK   24  A    between atoms: _48  and  _49
REMARK   25  A    between atoms: _48  and  _51
REMARK   26  A    between atoms: _51  and  _52
REMARK   27  A    between atoms: _57  and  _59
REMARK   28  A    between atoms: _59  and  _60
REMARK   29  A    between atoms: _59  and  _62
REMARK   30  A    between atoms: _62  and  _63
REMARK   31  A    between atoms: _63  and  _64
REMARK   32  A    between atoms: _64  and  _65
REMARK   33  A    between atoms: _74  and  _76
REMARK   34  A    between atoms: _76  and  _77
REMARK   35  A    between atoms: _76  and  _79
REMARK   36  A    between atoms: _79  and  _80
REMARK   37  A    between atoms: _83  and  _85
REMARK   38  A    between atoms: _85  and  _86
REMARK   39  A    between atoms: _85  and  _88
REMARK   40  A    between atoms: _88  and  _89
REMARK   41  A    between atoms: _92  and  _94
REMARK   42  A    between atoms: _94  and  _95
REMARK   43  A    between atoms: _97  and  _99
REMARK   44  A    between atoms: _99  and  _100
REMARK   45  A    between atoms: _99  and  _102
REMARK   46  A    between atoms: _102  and  _103
REMARK   47  A    between atoms: _108  and  _110
REMARK   48  A    between atoms: _110  and  _111
REMARK   49  A    between atoms: _114  and  _116
REMARK   50  A    between atoms: _116  and  _117
REMARK   51  A    between atoms: _119  and  _121
REMARK   52  A    between atoms: _121  and  _122
REMARK   53  A    between atoms: _121  and  _124
REMARK   54  A    between atoms: _124  and  _125
REMARK   55  A    between atoms: _128  and  _130
REMARK   56  A    between atoms: _130  and  _131
REMARK   57  A    between atoms: _134  and  _136
REMARK   58  A    between atoms: _136  and  _137
REMARK   59  A    between atoms: _136  and  _139
REMARK   60  A    between atoms: _139  and  _140
REMARK   61  A    between atoms: _140  and  _141
REMARK   62  A    between atoms: _143  and  _145
REMARK   63  A    between atoms: _145  and  _146
REMARK   64  A    between atoms: _145  and  _148
REMARK   65  A    between atoms: _148  and  _149
REMARK   66  A    between atoms: _149  and  _150
REMARK   67  A    between atoms: _150  and  _151
REMARK   68  A    between atoms: _161  and  _162
REMARK   69  A    between atoms: _167  and  _169
REMARK   70  A    between atoms: _169  and  _170
REMARK   71  A    between atoms: _169  and  _172
REMARK   72  A    between atoms: _172  and  _173
REMARK   73  A    between atoms: _173  and  _174
REMARK   74  A    between atoms: _174  and  _175
REMARK   75  A    between atoms: _184  and  _186
REMARK   76  A    between atoms: _186  and  _187
REMARK   77  A    between atoms: _186  and  _189
REMARK   78  A    between atoms: _189  and  _190
REMARK   79  A    between atoms: _190  and  _191
REMARK   80  A    between atoms: _193  and  _195
REMARK   81  A    between atoms: _195  and  _196
REMARK   82  A    between atoms: _195  and  _198
REMARK   83  A    between atoms: _198  and  _199
REMARK   84  A    between atoms: _199  and  _200
REMARK   85  A    between atoms: _200  and  _201
REMARK   86  A    between atoms: _211  and  _212
REMARK   87  A    between atoms: _217  and  _219
REMARK   88  A    between atoms: _219  and  _220
REMARK   89  A    between atoms: _222  and  _224
REMARK   90  A    between atoms: _224  and  _225
REMARK   91  A    between atoms: _224  and  _227
REMARK   92  A    between atoms: _230  and  _232
REMARK   93  A    between atoms: _232  and  _233
REMARK   94  A    between atoms: _232  and  _235
REMARK   95  A    between atoms: _235  and  _236
REMARK   96  A    between atoms: _238  and  _240
REMARK   97  A    between atoms: _240  and  _241
REMARK   98  A    between atoms: _240  and  _243
REMARK   99  A    between atoms: _243  and  _244
REMARK  100  A    between atoms: _246  and  _248
REMARK  101  A    between atoms: _248  and  _249
REMARK  102  A    between atoms: _248  and  _251
REMARK  103  A    between atoms: _251  and  _252
REMARK  104  A    between atoms: _252  and  _253
REMARK  105  A    between atoms: _258  and  _260
REMARK  106  A    between atoms: _260  and  _261
REMARK  107  A    between atoms: _260  and  _263
REMARK  108  A    between atoms: _263  and  _264
REMARK  109  A    between atoms: _270  and  _272
REMARK  110  A    between atoms: _272  and  _273
REMARK  111  A    between atoms: _272  and  _275
REMARK  112  A    between atoms: _275  and  _276
REMARK  113  A    between atoms: _279  and  _281
REMARK  114  A    between atoms: _281  and  _282
REMARK  115  A    between atoms: _281  and  _284
REMARK  116  A    between atoms: _284  and  _285
REMARK  117  A    between atoms: _288  and  _290
REMARK  118  A    between atoms: _290  and  _291
REMARK  119  A    between atoms: _294  and  _296
REMARK  120  A    between atoms: _296  and  _297
REMARK  121  A    between atoms: _296  and  _299
REMARK  122  A    between atoms: _299  and  _300
REMARK  123  A    between atoms: _303  and  _305
REMARK  124  A    between atoms: _305  and  _306
REMARK  125  A    between atoms: _305  and  _308
REMARK  126  A    between atoms: _311  and  _313
REMARK  127  A    between atoms: _313  and  _314
REMARK  128  A    between atoms: _313  and  _316
REMARK  129  A    between atoms: _316  and  _317
REMARK  130  A    between atoms: _319  and  _321
REMARK  131  A    between atoms: _321  and  _322
REMARK  132  A    between atoms: _321  and  _324
REMARK  133  A    between atoms: _324  and  _325
REMARK  134  A    between atoms: _325  and  _326
REMARK  135  A    between atoms: _326  and  _327
REMARK  136  A    between atoms: _327  and  _328
REMARK  137  A    between atoms: _333  and  _334
REMARK  138  A    between atoms: _339  and  _341
REMARK  139  A    between atoms: _341  and  _342
REMARK  140  A    between atoms: _341  and  _344
REMARK  141  A    between atoms: _344  and  _345
REMARK  142  A    between atoms: _350  and  _351
REMARK  143  A    between atoms: _353  and  _355
REMARK  144  A    between atoms: _355  and  _356
REMARK  145  A    between atoms: _355  and  _358
REMARK  146  A    between atoms: _358  and  _359
REMARK  147  A    between atoms: _362  and  _364
REMARK  148  A    between atoms: _364  and  _365
REMARK  149  A    between atoms: _364  and  _367
REMARK  150  A    between atoms: _367  and  _368
REMARK  151  A    between atoms: _371  and  _373
REMARK  152  A    between atoms: _373  and  _374
REMARK  153  A    between atoms: _373  and  _376
REMARK  154  A    between atoms: _376  and  _377
REMARK  155  A    between atoms: _380  and  _382
REMARK  156  A    between atoms: _382  and  _383
REMARK  157  A    between atoms: _382  and  _385
REMARK  158  A    between atoms: _385  and  _386
REMARK  159  A    between atoms: _389  and  _391
REMARK  160  A    between atoms: _391  and  _392
REMARK  161  A    between atoms: _391  and  _394
REMARK  162  A    between atoms: _394  and  _395
REMARK  163  A    between atoms: _397  and  _399
REMARK  164  A    between atoms: _399  and  _400
REMARK  165  A    between atoms: _399  and  _402
REMARK  166  A    between atoms: _402  and  _403
REMARK  167  A    between atoms: _408  and  _409
REMARK  168  A    between atoms: _411  and  _413
REMARK  169  A    between atoms: _413  and  _414
REMARK  170  A    between atoms: _413  and  _416
REMARK  171  A    between atoms: _416  and  _417
REMARK  172  A    between atoms: _420  and  _422
REMARK  173  A    between atoms: _422  and  _423
REMARK  174  A    between atoms: _422  and  _425
REMARK  175  A    between atoms: _425  and  _426
REMARK  176  A    between atoms: _431  and  _433
REMARK  177  A    between atoms: _433  and  _434
REMARK  178  A    between atoms: _433  and  _436
REMARK  179  A    between atoms: _436  and  _437
REMARK  180  A    between atoms: _441  and  _442
REMARK  181  A    between atoms: _447  and  _449
REMARK  182  A    between atoms: _449  and  _450
REMARK  183  A    between atoms: _449  and  _452
REMARK  184  A    between atoms: _452  and  _453
REMARK  185  A    between atoms: _456  and  _458
REMARK  186  A    between atoms: _458  and  _459
REMARK  187  A    between atoms: _462  and  _464
REMARK  188  A    between atoms: _464  and  _465
REMARK  189  A    between atoms: _464  and  _467
REMARK  190  A    between atoms: _467  and  _468
REMARK  191  A    between atoms: _468  and  _469
REMARK  192  A    between atoms: _471  and  _473
REMARK  193  A    between atoms: _473  and  _474
REMARK  194  A    between atoms: _473  and  _476
REMARK  195  A    between atoms: _476  and  _477
REMARK  196  A    between atoms: _482  and  _484
REMARK  197  A    between atoms: _484  and  _485
REMARK  198  A    between atoms: _484  and  _487
REMARK  199  A    between atoms: _487  and  _488
REMARK  200  A    between atoms: _498  and  _500
REMARK  201  A    between atoms: _500  and  _501
REMARK  202  A    between atoms: _500  and  _503
REMARK  203  A    between atoms: _506  and  _508
REMARK  204  A    between atoms: _508  and  _509
REMARK  205  A    between atoms: _508  and  _511
REMARK  206  A    between atoms: _511  and  _512
REMARK  207  A    between atoms: _512  and  _513
REMARK  208  A    between atoms: _513  and  _514
REMARK  209  A    between atoms: _514  and  _515
REMARK  210  A    between atoms: _519  and  _521
REMARK  211  A    between atoms: _521  and  _522
REMARK  212  A    between atoms: _521  and  _524
REMARK  213  A    between atoms: _524  and  _525
REMARK  214  A    between atoms: _525  and  _526
REMARK  215  A    between atoms: _529  and  _531
REMARK  216  A    between atoms: _531  and  _532
REMARK  217  A    between atoms: _531  and  _534
REMARK  218  A    between atoms: _534  and  _535
REMARK  219  A    between atoms: _538  and  _540
REMARK  220  A    between atoms: _540  and  _541
REMARK  221  A    between atoms: _540  and  _543
REMARK  222  A    between atoms: _543  and  _544
REMARK  223  A    between atoms: _544  and  _545
REMARK  224  A    between atoms: _545  and  _546
REMARK  225  A    between atoms: _555  and  _557
REMARK  226  A    between atoms: _557  and  _558
REMARK  227  A    between atoms: _557  and  _560
REMARK  228  A    between atoms: _560  and  _561
REMARK  229  A    between atoms: _564  and  _566
REMARK  230  A    between atoms: _566  and  _567
REMARK  231  A    between atoms: _566  and  _569
REMARK  232  A    between atoms: _569  and  _570
REMARK  233  A    between atoms: _575  and  _577
REMARK  234  A    between atoms: _577  and  _578
REMARK  235  A    between atoms: _577  and  _580
REMARK  236  A    between atoms: _580  and  _581
REMARK  237  A    between atoms: _581  and  _582
REMARK  238  A    between atoms: _582  and  _583
REMARK  239  A    between atoms: _592  and  _594
REMARK  240  A    between atoms: _594  and  _595
REMARK  241  A    between atoms: _594  and  _597
REMARK  242  A    between atoms: _597  and  _598
REMARK  243  A    between atoms: _598  and  _599
REMARK  244  A    between atoms: _601  and  _603
REMARK  245  A    between atoms: _603  and  _604
REMARK  246  A    between atoms: _603  and  _606
REMARK  247  A    between atoms: _606  and  _607
REMARK  248  A    between atoms: _607  and  _608
REMARK  249  A    between atoms: _610  and  _612
REMARK  250  A    between atoms: _612  and  _613
REMARK  251  A    between atoms: _612  and  _615
REMARK  252  A    between atoms: _615  and  _616
REMARK  253  A    between atoms: _616  and  _617
REMARK  254  A    between atoms: _617  and  _618
REMARK  255  A    between atoms: _618  and  _619
REMARK  256  A    between atoms: _623  and  _625
REMARK  257  A    between atoms: _625  and  _626
REMARK  258  A    between atoms: _625  and  _628
REMARK  259  A    between atoms: _628  and  _629
REMARK                            x       y       z     vdW  Elec       q    Type
REMARK                         _______ _______ _______ _____ _____    ______ ____
ROOT
ATOM      1  CA  TRP A   2      56.384   1.090  32.762  0.00  0.00    +0.141 C 
ENDROOT
BRANCH   1   3
ATOM      2  C   ASN A   1      54.943   1.388  30.838  0.00  0.00    +0.239 C 
ATOM      3  N   TRP A   2      55.067   1.112  32.135  0.00  0.00    -0.298 N 
ATOM      4  H   TRP A   2      54.220   0.911  32.704  0.00  0.00    +0.150 HD
ATOM      5  O   ASN A   1      55.888   1.772  30.142  0.00  0.00    -0.274 OA
BRANCH   2   6
ATOM      6  CA  ASN A   1      53.544   1.198  30.236  0.00  0.00    +0.154 C 
BRANCH   6   7
ATOM      7  N   ASN A   1      52.484   0.731  31.124  0.00  0.00    -0.238 NA
ATOM      8  H   ASN A   1      51.671   1.335  31.361  0.00  0.00    +0.142 HD
ENDBRANCH   6   7
BRANCH   6   9
ATOM      9  CB  ASN A   1      53.078   2.390  29.352  0.00  0.00    +0.111 C 
BRANCH   9  10
ATOM     10  CG  ASN A   1      53.089   3.725  30.044  0.00  0.00    +0.221 C 
ATOM     11  OD1 ASN A   1      53.569   3.884  31.172  0.00  0.00    -0.275 OA
ATOM     12  ND2 ASN A   1      52.578   4.730  29.333  0.00  0.00    -0.329 N 
ATOM     13 HD21 ASN A   1      52.573   5.694  29.724  0.00  0.00    +0.145 HD
ATOM     14 HD22 ASN A   1      52.184   4.550  28.387  0.00  0.00    +0.145 HD
ENDBRANCH   9  10
ENDBRANCH   6   9
ENDBRANCH   2   6
ENDBRANCH   1   3
BRANCH   1  15
ATOM     15  C   TRP A   2      57.160   0.014  31.975  0.00  0.00    +0.227 C 
ATOM     16  O   TRP A   2      58.393   0.072  31.855  0.00  0.00    -0.286 OA
ENDBRANCH   1  15
BRANCH   1  17
ATOM     17  CB  TRP A   2      56.266   0.590  34.196  0.00  0.00    +0.056 C 
BRANCH  17  18
ATOM     18  CG  TRP A   2      56.102   1.630  35.257  0.00  0.00    -0.002 A 
ATOM     19  CD2 TRP A   2      56.448   1.471  36.633  0.00  0.00    +0.013 A 
ATOM     20  CE3 TRP A   2      57.017   0.424  37.372  0.00  0.00    +0.001 A 
ATOM     21  CZ3 TRP A   2      57.222   0.598  38.736  0.00  0.00    +0.000 A 
ATOM     22  CH2 TRP A   2      56.869   1.806  39.373  0.00  0.00    +0.001 A 
ATOM     23  CZ2 TRP A   2      56.313   2.847  38.673  0.00  0.00    +0.017 A 
ATOM     24  CE2 TRP A   2      56.103   2.671  37.298  0.00  0.00    +0.056 A 
ATOM     25  NE1 TRP A   2      55.565   3.521  36.362  0.00  0.00    -0.352 N 
ATOM     26  HE1 TRP A   2      55.213   4.482  36.546  0.00  0.00    +0.166 HD
ATOM     27  CD1 TRP A   2      55.570   2.883  35.130  0.00  0.00    +0.068 A 
ENDBRANCH  17  18
ENDBRANCH   1  17
TORSDOF 8
REMARK  Name = ../refined-set-2016/2pq9/2pq9_pocket.pdb
REMARK  259 active torsions:
REMARK  status: ('A' for Active; 'I' for Inactive)
REMARK    1  A    between atoms: _1  and  _3
REMARK    2  A    between atoms: _3  and  _4
REMARK    3  A    between atoms: _3  and  _6
REMARK    4  A    between atoms: _6  and  _7
REMARK    5  A    between atoms: _9  and  _11
REMARK    6  A    between atoms: _11  and  _12
REMARK    7  A    between atoms: _11  and  _14
REMARK    8  A    between atoms: _14  and  _15
REMARK    9  A    between atoms: _15  and  _16
REMARK   10  A    between atoms: _16  and  _17
REMARK   11  A    between atoms: _17  and  _18
REMARK   12  A    between atoms: _22  and  _24
REMARK   13  A    between atoms: _24  and  _25
REMARK   14  A    between atoms: _24  and  _27
REMARK   15  A    between atoms: _27  and  _28
REMARK   16  A    between atoms: _30  and  _32
REMARK   17  A    between atoms: _32  and  _33
REMARK   18  A    between atoms: _32  and  _35
REMARK   19  A    between atoms: _38  and  _40
REMARK   20  A    between atoms: _40  and  _41
REMARK   21  A    between atoms: _40  and  _43
REMARK   22  A    between atoms: _43  and  _44
REMARK   23  A    between atoms: _46  and  _48
REMARK   24  A    between atoms: _48  and  _49
REMARK   25  A    between atoms: _48  and  _51
REMARK   26  A    between atoms: _51  and  _52
REMARK   27  A    between atoms: _57  and  _59
REMARK   28  A    between atoms: _59  and  _60
REMARK   29  A    between atoms: _59  and  _62
REMARK   30  A    between atoms: _62  and  _63
REMARK   31  A    between atoms: _63  and  _64
REMARK   32  A    between atoms: _64  and  _65
REMARK   33  A    between atoms: _74  and  _76
REMARK   34  A    between atoms: _76  and  _77
REMARK   35  A    between atoms: _76  and  _79
REMARK   36  A    between atoms: _79  and  _80
REMARK   37  A    between atoms: _83  and  _85
REMARK   38  A    between atoms: _85  and  _86
REMARK   39  A    between atoms: _85  and  _88
REMARK   40  A    between atoms: _88  and  _89
REMARK   41  A    between atoms: _92  and  _94
REMARK   42  A    between atoms: _94  and  _95
REMARK   43  A    between atoms: _97  and  _99
REMARK   44  A    between atoms: _99  and  _100
REMARK   45  A    between atoms: _99  and  _102
REMARK   46  A    between atoms: _102  and  _103
REMARK   47  A    between atoms: _108  and  _110
REMARK   48  A    between atoms: _110  and  _111
REMARK   49  A    between atoms: _114  and  _116
REMARK   50  A    between atoms: _116  and  _117
REMARK   51  A    between atoms: _119  and  _121
REMARK   52  A    between atoms: _121  and  _122
REMARK   53  A    between atoms: _121  and  _124
REMARK   54  A    between atoms: _124  and  _125
REMARK   55  A    between atoms: _128  and  _130
REMARK   56  A    between atoms: _130  and  _131
REMARK   57  A    between atoms: _134  and  _136
REMARK   58  A    between atoms: _136  and  _137
REMARK   59  A    between atoms: _136  and  _139
REMARK   60  A    between atoms: _139  and  _140
REMARK   61  A    between atoms: _140  and  _141
REMARK   62  A    between atoms: _143  and  _145
REMARK   63  A    between atoms: _145  and  _146
REMARK   64  A    between atoms: _145  and  _148
REMARK   65  A    between atoms: _148  and  _149
REMARK   66  A    between atoms: _149  and  _150
REMARK   67  A    between atoms: _150  and  _151
REMARK   68  A    between atoms: _161  and  _162
REMARK   69  A    between atoms: _167  and  _169
REMARK   70  A    between atoms: _169  and  _170
REMARK   71  A    between atoms: _169  and  _172
REMARK   72  A    between atoms: _172  and  _173
REMARK   73  A    between atoms: _173  and  _174
REMARK   74  A    between atoms: _174  and  _175
REMARK   75  A    between atoms: _184  and  _186
REMARK   76  A    between atoms: _186  and  _187
REMARK   77  A    between atoms: _186  and  _189
REMARK   78  A    between atoms: _189  and  _190
REMARK   79  A    between atoms: _190  and  _191
REMARK   80  A    between atoms: _193  and  _195
REMARK   81  A    between atoms: _195  and  _196
REMARK   82  A    between atoms: _195  and  _198
REMARK   83  A    between atoms: _198  and  _199
REMARK   84  A    between atoms: _199  and  _200
REMARK   85  A    between atoms: _200  and  _201
REMARK   86  A    between atoms: _211  and  _212
REMARK   87  A    between atoms: _217  and  _219
REMARK   88  A    between atoms: _219  and  _220
REMARK   89  A    between atoms: _222  and  _224
REMARK   90  A    between atoms: _224  and  _225
REMARK   91  A    between atoms: _224  and  _227
REMARK   92  A    between atoms: _230  and  _232
REMARK   93  A    between atoms: _232  and  _233
REMARK   94  A    between atoms: _232  and  _235
REMARK   95  A    between atoms: _235  and  _236
REMARK   96  A    between atoms: _238  and  _240
REMARK   97  A    between atoms: _240  and  _241
REMARK   98  A    between atoms: _240  and  _243
REMARK   99  A    between atoms: _243  and  _244
REMARK  100  A    between atoms: _246  and  _248
REMARK  101  A    between atoms: _248  and  _249
REMARK  102  A    between atoms: _248  and  _251
REMARK  103  A    between atoms: _251  and  _252
REMARK  104  A    between atoms: _252  and  _253
REMARK  105  A    between atoms: _258  and  _260
REMARK  106  A    between atoms: _260  and  _261
REMARK  107  A    between atoms: _260  and  _263
REMARK  108  A    between atoms: _263  and  _264
REMARK  109  A    between atoms: _270  and  _272
REMARK  110  A    between atoms: _272  and  _273
REMARK  111  A    between atoms: _272  and  _275
REMARK  112  A    between atoms: _275  and  _276
REMARK  113  A    between atoms: _279  and  _281
REMARK  114  A    between atoms: _281  and  _282
REMARK  115  A    between atoms: _281  and  _284
REMARK  116  A    between atoms: _284  and  _285
REMARK  117  A    between atoms: _288  and  _290
REMARK  118  A    between atoms: _290  and  _291
REMARK  119  A    between atoms: _294  and  _296
REMARK  120  A    between atoms: _296  and  _297
REMARK  121  A    between atoms: _296  and  _299
REMARK  122  A    between atoms: _299  and  _300
REMARK  123  A    between atoms: _303  and  _305
REMARK  124  A    between atoms: _305  and  _306
REMARK  125  A    between atoms: _305  and  _308
REMARK  126  A    between atoms: _311  and  _313
REMARK  127  A    between atoms: _313  and  _314
REMARK  128  A    between atoms: _313  and  _316
REMARK  129  A    between atoms: _316  and  _317
REMARK  130  A    between atoms: _319  and  _321
REMARK  131  A    between atoms: _321  and  _322
REMARK  132  A    between atoms: _321  and  _324
REMARK  133  A    between atoms: _324  and  _325
REMARK  134  A    between atoms: _325  and  _326
REMARK  135  A    between atoms: _326  and  _327
REMARK  136  A    between atoms: _327  and  _328
REMARK  137  A    between atoms: _333  and  _334
REMARK  138  A    between atoms: _339  and  _341
REMARK  139  A    between atoms: _341  and  _342
REMARK  140  A    between atoms: _341  and  _344
REMARK  141  A    between atoms: _344  and  _345
REMARK  142  A    between atoms: _350  and  _351
REMARK  143  A    between atoms: _353  and  _355
REMARK  144  A    between atoms: _355  and  _356
REMARK  145  A    between atoms: _355  and  _358
REMARK  146  A    between atoms: _358  and  _359
REMARK  147  A    between atoms: _362  and  _364
REMARK  148  A    between atoms: _364  and  _365
REMARK  149  A    between atoms: _364  and  _367
REMARK  150  A    between atoms: _367  and  _368
REMARK  151  A    between atoms: _371  and  _373
REMARK  152  A    between atoms: _373  and  _374
REMARK  153  A    between atoms: _373  and  _376
REMARK  154  A    between atoms: _376  and  _377
REMARK  155  A    between atoms: _380  and  _382
REMARK  156  A    between atoms: _382  and  _383
REMARK  157  A    between atoms: _382  and  _385
REMARK  158  A    between atoms: _385  and  _386
REMARK  159  A    between atoms: _389  and  _391
REMARK  160  A    between atoms: _391  and  _392
REMARK  161  A    between atoms: _391  and  _394
REMARK  162  A    between atoms: _394  and  _395
REMARK  163  A    between atoms: _397  and  _399
REMARK  164  A    between atoms: _399  and  _400
REMARK  165  A    between atoms: _399  and  _402
REMARK  166  A    between atoms: _402  and  _403
REMARK  167  A    between atoms: _408  and  _409
REMARK  168  A    between atoms: _411  and  _413
REMARK  169  A    between atoms: _413  and  _414
REMARK  170  A    between atoms: _413  and  _416
REMARK  171  A    between atoms: _416  and  _417
REMARK  172  A    between atoms: _420  and  _422
REMARK  173  A    between atoms: _422  and  _423
REMARK  174  A    between atoms: _422  and  _425
REMARK  175  A    between atoms: _425  and  _426
REMARK  176  A    between atoms: _431  and  _433
REMARK  177  A    between atoms: _433  and  _434
REMARK  178  A    between atoms: _433  and  _436
REMARK  179  A    between atoms: _436  and  _437
REMARK  180  A    between atoms: _441  and  _442
REMARK  181  A    between atoms: _447  and  _449
REMARK  182  A    between atoms: _449  and  _450
REMARK  183  A    between atoms: _449  and  _452
REMARK  184  A    between atoms: _452  and  _453
REMARK  185  A    between atoms: _456  and  _458
REMARK  186  A    between atoms: _458  and  _459
REMARK  187  A    between atoms: _462  and  _464
REMARK  188  A    between atoms: _464  and  _465
REMARK  189  A    between atoms: _464  and  _467
REMARK  190  A    between atoms: _467  and  _468
REMARK  191  A    between atoms: _468  and  _469
REMARK  192  A    between atoms: _471  and  _473
REMARK  193  A    between atoms: _473  and  _474
REMARK  194  A    between atoms: _473  and  _476
REMARK  195  A    between atoms: _476  and  _477
REMARK  196  A    between atoms: _482  and  _484
REMARK  197  A    between atoms: _484  and  _485
REMARK  198  A    between atoms: _484  and  _487
REMARK  199  A    between atoms: _487  and  _488
REMARK  200  A    between atoms: _498  and  _500
REMARK  201  A    between atoms: _500  and  _501
REMARK  202  A    between atoms: _500  and  _503
REMARK  203  A    between atoms: _506  and  _508
REMARK  204  A    between atoms: _508  and  _509
REMARK  205  A    between atoms: _508  and  _511
REMARK  206  A    between atoms: _511  and  _512
REMARK  207  A    between atoms: _512  and  _513
REMARK  208  A    between atoms: _513  and  _514
REMARK  209  A    between atoms: _514  and  _515
REMARK  210  A    between atoms: _519  and  _521
REMARK  211  A    between atoms: _521  and  _522
REMARK  212  A    between atoms: _521  and  _524
REMARK  213  A    between atoms: _524  and  _525
REMARK  214  A    between atoms: _525  and  _526
REMARK  215  A    between atoms: _529  and  _531
REMARK  216  A    between atoms: _531  and  _532
REMARK  217  A    between atoms: _531  and  _534
REMARK  218  A    between atoms: _534  and  _535
REMARK  219  A    between atoms: _538  and  _540
REMARK  220  A    between atoms: _540  and  _541
REMARK  221  A    between atoms: _540  and  _543
REMARK  222  A    between atoms: _543  and  _544
REMARK  223  A    between atoms: _544  and  _545
REMARK  224  A    between atoms: _545  and  _546
REMARK  225  A    between atoms: _555  and  _557
REMARK  226  A    between atoms: _557  and  _558
REMARK  227  A    between atoms: _557  and  _560
REMARK  228  A    between atoms: _560  and  _561
REMARK  229  A    between atoms: _564  and  _566
REMARK  230  A    between atoms: _566  and  _567
REMARK  231  A    between atoms: _566  and  _569
REMARK  232  A    between atoms: _569  and  _570
REMARK  233  A    between atoms: _575  and  _577
REMARK  234  A    between atoms: _577  and  _578
REMARK  235  A    between atoms: _577  and  _580
REMARK  236  A    between atoms: _580  and  _581
REMARK  237  A    between atoms: _581  and  _582
REMARK  238  A    between atoms: _582  and  _583
REMARK  239  A    between atoms: _592  and  _594
REMARK  240  A    between atoms: _594  and  _595
REMARK  241  A    between atoms: _594  and  _597
REMARK  242  A    between atoms: _597  and  _598
REMARK  243  A    between atoms: _598  and  _599
REMARK  244  A    between atoms: _601  and  _603
REMARK  245  A    between atoms: _603  and  _604
REMARK  246  A    between atoms: _603  and  _606
REMARK  247  A    between atoms: _606  and  _607
REMARK  248  A    between atoms: _607  and  _608
REMARK  249  A    between atoms: _610  and  _612
REMARK  250  A    between atoms: _612  and  _613
REMARK  251  A    between atoms: _612  and  _615
REMARK  252  A    between atoms: _615  and  _616
REMARK  253  A    between atoms: _616  and  _617
REMARK  254  A    between atoms: _617  and  _618
REMARK  255  A    between atoms: _618  and  _619
REMARK  256  A    between atoms: _623  and  _625
REMARK  257  A    between atoms: _625  and  _626
REMARK  258  A    between atoms: _625  and  _628
REMARK  259  A    between atoms: _628  and  _629
REMARK                            x       y       z     vdW  Elec       q    Type
REMARK                         _______ _______ _______ _____ _____    ______ ____
ROOT
ATOM      1  C   LYS A   2      61.619   2.351  28.478  0.00  0.00    +0.241 C 
ATOM      2  N   GLU A   3      62.441   3.045  29.276  0.00  0.00    -0.297 N 
ATOM      3  H   GLU A   3      62.054   3.733  29.953  0.00  0.00    +0.150 HD
ATOM      4  O   LYS A   2      62.045   1.519  27.691  0.00  0.00    -0.273 OA
ENDROOT
BRANCH   2   5
ATOM      5  CA  GLU A   3      63.893   2.829  29.191  0.00  0.00    +0.149 C 
BRANCH   5   6
ATOM      6  C   GLU A   3      64.309   1.400  29.480  0.00  0.00    +0.241 C 
ATOM      7  N   THR A   4      63.434   0.666  30.163  0.00  0.00    -0.296 N 
ATOM      8  H   THR A   4      62.583   1.132  30.537  0.00  0.00    +0.150 HD
ATOM      9  O   GLU A   3      65.407   0.990  29.097  0.00  0.00    -0.273 OA
BRANCH   7  10
ATOM     10  CA  THR A   4      63.610  -0.759  30.412  0.00  0.00    +0.164 C 
BRANCH  10  11
ATOM     11  C   THR A   4      62.225  -1.230  30.813  0.00  0.00    +0.229 C 
ATOM     12  O   THR A   4      61.286  -0.421  30.818  0.00  0.00    -0.286 OA
ENDBRANCH  10  11
BRANCH  10  13
ATOM     13  CB  THR A   4      64.643  -1.076  31.541  0.00  0.00    +0.136 C 
ATOM     14  CG2 THR A   4      64.116  -0.669  32.927  0.00  0.00    +0.034 C 
BRANCH  13  15
ATOM     15  OG1 THR A   4      64.906  -2.487  31.554  0.00  0.00    -0.382 OA
ATOM     16  HG1 THR A   4      65.275  -2.761  30.677  0.00  0.00    +0.210 HD
ENDBRANCH  13  15
ENDBRANCH  10  13
ENDBRANCH   7  10
ENDBRANCH   5   6
BRANCH   5  17
ATOM     17  CB  GLU A   3      64.657   3.808  30.082  0.00  0.00    +0.041 C 
BRANCH  17  18
ATOM     18  CG  GLU A   3      64.687   5.221  29.480  0.00  0.00    +0.116 C 
BRANCH  18  19
ATOM     19  CD  GLU A   3      65.368   5.264  28.108  0.00  0.00    +0.365 C 
ATOM     20  OE2 GLU A   3      66.607   5.435  28.055  0.00  0.00    -0.246 OA
ATOM     21  OE1 GLU A   3      64.672   5.109  27.085  0.00  0.00    -0.246 OA
ENDBRANCH  18  19
ENDBRANCH  17  18
ENDBRANCH   5  17
ENDBRANCH   2   5
BRANCH   1  22
ATOM     22  CA  LYS A   2      60.104   2.599  28.509  0.00  0.00    +0.149 C 
BRANCH  22  24
ATOM     23  C   VAL A   1      58.689   1.018  27.386  0.00  0.00    +0.238 C 
ATOM     24  N   LYS A   2      59.313   1.386  28.493  0.00  0.00    -0.297 N 
ATOM     25  H   LYS A   2      59.236   0.804  29.352  0.00  0.00    +0.150 HD
ATOM     26  O   VAL A   1      58.801   1.652  26.327  0.00  0.00    -0.274 OA
BRANCH  23  27
ATOM     27  CA  VAL A   1      57.861  -0.264  27.465  0.00  0.00    +0.145 C 
BRANCH  27  28
ATOM     28  CB  VAL A   1      56.675  -0.198  26.437  0.00  0.00    +0.025 C 
ATOM     29  CG2 VAL A   1      55.692   0.928  26.814  0.00  0.00    +0.002 C 
ATOM     30  CG1 VAL A   1      55.933  -1.538  26.399  0.00  0.00    +0.002 C 
ENDBRANCH  27  28
BRANCH  27  31
ATOM     31  N   VAL A   1      57.358  -0.606  28.802  0.00  0.00    -0.238 NA
ATOM     32  H   VAL A   1      56.715   0.047  29.294  0.00  0.00    +0.142 HD
ENDBRANCH  27  31
ENDBRANCH  23  27
ENDBRANCH  22  24
BRANCH  22  33
ATOM     33  CB  LYS A   2      59.626   3.464  29.671  0.00  0.00    +0.029 C 
BRANCH  33  34
ATOM     34  CG  LYS A   2      58.239   4.042  29.321  0.00  0.00    +0.000 C 
BRANCH  34  35
ATOM     35  CD  LYS A   2      57.552   4.716  30.462  0.00  0.00    -0.024 C 
BRANCH  35  36
ATOM     36  CE  LYS A   2      56.290   5.399  29.906  0.00  0.00    -0.086 C 
BRANCH  36  37
ATOM     37  NZ  LYS A   2      55.668   6.268  30.901  0.00  0.00    +0.380 N 
ATOM     38  HZ1 LYS A   2      55.398   5.704  31.732  0.00  0.00    -0.089 HD
ATOM     39  HZ2 LYS A   2      56.343   7.006  31.186  0.00  0.00    -0.089 HD
ATOM     40  HZ3 LYS A   2      54.821   6.711  30.491  0.00  0.00    -0.089 HD
ENDBRANCH  36  37
ENDBRANCH  35  36
ENDBRANCH  34  35
ENDBRANCH  33  34
ENDBRANCH  22  33
ENDBRANCH   1  22
TORSDOF 19
REMARK  Name = ../refined-set-2016/2pq9/2pq9_pocket.pdb
REMARK  259 active torsions:
REMARK  status: ('A' for Active; 'I' for Inactive)
REMARK    1  A    between atoms: _1  and  _3
REMARK    2  A    between atoms: _3  and  _4
REMARK    3  A    between atoms: _3  and  _6
REMARK    4  A    between atoms: _6  and  _7
REMARK    5  A    between atoms: _9  and  _11
REMARK    6  A    between atoms: _11  and  _12
REMARK    7  A    between atoms: _11  and  _14
REMARK    8  A    between atoms: _14  and  _15
REMARK    9  A    between atoms: _15  and  _16
REMARK   10  A    between atoms: _16  and  _17
REMARK   11  A    between atoms: _17  and  _18
REMARK   12  A    between atoms: _22  and  _24
REMARK   13  A    between atoms: _24  and  _25
REMARK   14  A    between atoms: _24  and  _27
REMARK   15  A    between atoms: _27  and  _28
REMARK   16  A    between atoms: _30  and  _32
REMARK   17  A    between atoms: _32  and  _33
REMARK   18  A    between atoms: _32  and  _35
REMARK   19  A    between atoms: _38  and  _40
REMARK   20  A    between atoms: _40  and  _41
REMARK   21  A    between atoms: _40  and  _43
REMARK   22  A    between atoms: _43  and  _44
REMARK   23  A    between atoms: _46  and  _48
REMARK   24  A    between atoms: _48  and  _49
REMARK   25  A    between atoms: _48  and  _51
REMARK   26  A    between atoms: _51  and  _52
REMARK   27  A    between atoms: _57  and  _59
REMARK   28  A    between atoms: _59  and  _60
REMARK   29  A    between atoms: _59  and  _62
REMARK   30  A    between atoms: _62  and  _63
REMARK   31  A    between atoms: _63  and  _64
REMARK   32  A    between atoms: _64  and  _65
REMARK   33  A    between atoms: _74  and  _76
REMARK   34  A    between atoms: _76  and  _77
REMARK   35  A    between atoms: _76  and  _79
REMARK   36  A    between atoms: _79  and  _80
REMARK   37  A    between atoms: _83  and  _85
REMARK   38  A    between atoms: _85  and  _86
REMARK   39  A    between atoms: _85  and  _88
REMARK   40  A    between atoms: _88  and  _89
REMARK   41  A    between atoms: _92  and  _94
REMARK   42  A    between atoms: _94  and  _95
REMARK   43  A    between atoms: _97  and  _99
REMARK   44  A    between atoms: _99  and  _100
REMARK   45  A    between atoms: _99  and  _102
REMARK   46  A    between atoms: _102  and  _103
REMARK   47  A    between atoms: _108  and  _110
REMARK   48  A    between atoms: _110  and  _111
REMARK   49  A    between atoms: _114  and  _116
REMARK   50  A    between atoms: _116  and  _117
REMARK   51  A    between atoms: _119  and  _121
REMARK   52  A    between atoms: _121  and  _122
REMARK   53  A    between atoms: _121  and  _124
REMARK   54  A    between atoms: _124  and  _125
REMARK   55  A    between atoms: _128  and  _130
REMARK   56  A    between atoms: _130  and  _131
REMARK   57  A    between atoms: _134  and  _136
REMARK   58  A    between atoms: _136  and  _137
REMARK   59  A    between atoms: _136  and  _139
REMARK   60  A    between atoms: _139  and  _140
REMARK   61  A    between atoms: _140  and  _141
REMARK   62  A    between atoms: _143  and  _145
REMARK   63  A    between atoms: _145  and  _146
REMARK   64  A    between atoms: _145  and  _148
REMARK   65  A    between atoms: _148  and  _149
REMARK   66  A    between atoms: _149  and  _150
REMARK   67  A    between atoms: _150  and  _151
REMARK   68  A    between atoms: _161  and  _162
REMARK   69  A    between atoms: _167  and  _169
REMARK   70  A    between atoms: _169  and  _170
REMARK   71  A    between atoms: _169  and  _172
REMARK   72  A    between atoms: _172  and  _173
REMARK   73  A    between atoms: _173  and  _174
REMARK   74  A    between atoms: _174  and  _175
REMARK   75  A    between atoms: _184  and  _186
REMARK   76  A    between atoms: _186  and  _187
REMARK   77  A    between atoms: _186  and  _189
REMARK   78  A    between atoms: _189  and  _190
REMARK   79  A    between atoms: _190  and  _191
REMARK   80  A    between atoms: _193  and  _195
REMARK   81  A    between atoms: _195  and  _196
REMARK   82  A    between atoms: _195  and  _198
REMARK   83  A    between atoms: _198  and  _199
REMARK   84  A    between atoms: _199  and  _200
REMARK   85  A    between atoms: _200  and  _201
REMARK   86  A    between atoms: _211  and  _212
REMARK   87  A    between atoms: _217  and  _219
REMARK   88  A    between atoms: _219  and  _220
REMARK   89  A    between atoms: _222  and  _224
REMARK   90  A    between atoms: _224  and  _225
REMARK   91  A    between atoms: _224  and  _227
REMARK   92  A    between atoms: _230  and  _232
REMARK   93  A    between atoms: _232  and  _233
REMARK   94  A    between atoms: _232  and  _235
REMARK   95  A    between atoms: _235  and  _236
REMARK   96  A    between atoms: _238  and  _240
REMARK   97  A    between atoms: _240  and  _241
REMARK   98  A    between atoms: _240  and  _243
REMARK   99  A    between atoms: _243  and  _244
REMARK  100  A    between atoms: _246  and  _248
REMARK  101  A    between atoms: _248  and  _249
REMARK  102  A    between atoms: _248  and  _251
REMARK  103  A    between atoms: _251  and  _252
REMARK  104  A    between atoms: _252  and  _253
REMARK  105  A    between atoms: _258  and  _260
REMARK  106  A    between atoms: _260  and  _261
REMARK  107  A    between atoms: _260  and  _263
REMARK  108  A    between atoms: _263  and  _264
REMARK  109  A    between atoms: _270  and  _272
REMARK  110  A    between atoms: _272  and  _273
REMARK  111  A    between atoms: _272  and  _275
REMARK  112  A    between atoms: _275  and  _276
REMARK  113  A    between atoms: _279  and  _281
REMARK  114  A    between atoms: _281  and  _282
REMARK  115  A    between atoms: _281  and  _284
REMARK  116  A    between atoms: _284  and  _285
REMARK  117  A    between atoms: _288  and  _290
REMARK  118  A    between atoms: _290  and  _291
REMARK  119  A    between atoms: _294  and  _296
REMARK  120  A    between atoms: _296  and  _297
REMARK  121  A    between atoms: _296  and  _299
REMARK  122  A    between atoms: _299  and  _300
REMARK  123  A    between atoms: _303  and  _305
REMARK  124  A    between atoms: _305  and  _306
REMARK  125  A    between atoms: _305  and  _308
REMARK  126  A    between atoms: _311  and  _313
REMARK  127  A    between atoms: _313  and  _314
REMARK  128  A    between atoms: _313  and  _316
REMARK  129  A    between atoms: _316  and  _317
REMARK  130  A    between atoms: _319  and  _321
REMARK  131  A    between atoms: _321  and  _322
REMARK  132  A    between atoms: _321  and  _324
REMARK  133  A    between atoms: _324  and  _325
REMARK  134  A    between atoms: _325  and  _326
REMARK  135  A    between atoms: _326  and  _327
REMARK  136  A    between atoms: _327  and  _328
REMARK  137  A    between atoms: _333  and  _334
REMARK  138  A    between atoms: _339  and  _341
REMARK  139  A    between atoms: _341  and  _342
REMARK  140  A    between atoms: _341  and  _344
REMARK  141  A    between atoms: _344  and  _345
REMARK  142  A    between atoms: _350  and  _351
REMARK  143  A    between atoms: _353  and  _355
REMARK  144  A    between atoms: _355  and  _356
REMARK  145  A    between atoms: _355  and  _358
REMARK  146  A    between atoms: _358  and  _359
REMARK  147  A    between atoms: _362  and  _364
REMARK  148  A    between atoms: _364  and  _365
REMARK  149  A    between atoms: _364  and  _367
REMARK  150  A    between atoms: _367  and  _368
REMARK  151  A    between atoms: _371  and  _373
REMARK  152  A    between atoms: _373  and  _374
REMARK  153  A    between atoms: _373  and  _376
REMARK  154  A    between atoms: _376  and  _377
REMARK  155  A    between atoms: _380  and  _382
REMARK  156  A    between atoms: _382  and  _383
REMARK  157  A    between atoms: _382  and  _385
REMARK  158  A    between atoms: _385  and  _386
REMARK  159  A    between atoms: _389  and  _391
REMARK  160  A    between atoms: _391  and  _392
REMARK  161  A    between atoms: _391  and  _394
REMARK  162  A    between atoms: _394  and  _395
REMARK  163  A    between atoms: _397  and  _399
REMARK  164  A    between atoms: _399  and  _400
REMARK  165  A    between atoms: _399  and  _402
REMARK  166  A    between atoms: _402  and  _403
REMARK  167  A    between atoms: _408  and  _409
REMARK  168  A    between atoms: _411  and  _413
REMARK  169  A    between atoms: _413  and  _414
REMARK  170  A    between atoms: _413  and  _416
REMARK  171  A    between atoms: _416  and  _417
REMARK  172  A    between atoms: _420  and  _422
REMARK  173  A    between atoms: _422  and  _423
REMARK  174  A    between atoms: _422  and  _425
REMARK  175  A    between atoms: _425  and  _426
REMARK  176  A    between atoms: _431  and  _433
REMARK  177  A    between atoms: _433  and  _434
REMARK  178  A    between atoms: _433  and  _436
REMARK  179  A    between atoms: _436  and  _437
REMARK  180  A    between atoms: _441  and  _442
REMARK  181  A    between atoms: _447  and  _449
REMARK  182  A    between atoms: _449  and  _450
REMARK  183  A    between atoms: _449  and  _452
REMARK  184  A    between atoms: _452  and  _453
REMARK  185  A    between atoms: _456  and  _458
REMARK  186  A    between atoms: _458  and  _459
REMARK  187  A    between atoms: _462  and  _464
REMARK  188  A    between atoms: _464  and  _465
REMARK  189  A    between atoms: _464  and  _467
REMARK  190  A    between atoms: _467  and  _468
REMARK  191  A    between atoms: _468  and  _469
REMARK  192  A    between atoms: _471  and  _473
REMARK  193  A    between atoms: _473  and  _474
REMARK  194  A    between atoms: _473  and  _476
REMARK  195  A    between atoms: _476  and  _477
REMARK  196  A    between atoms: _482  and  _484
REMARK  197  A    between atoms: _484  and  _485
REMARK  198  A    between atoms: _484  and  _487
REMARK  199  A    between atoms: _487  and  _488
REMARK  200  A    between atoms: _498  and  _500
REMARK  201  A    between atoms: _500  and  _501
REMARK  202  A    between atoms: _500  and  _503
REMARK  203  A    between atoms: _506  and  _508
REMARK  204  A    between atoms: _508  and  _509
REMARK  205  A    between atoms: _508  and  _511
REMARK  206  A    between atoms: _511  and  _512
REMARK  207  A    between atoms: _512  and  _513
REMARK  208  A    between atoms: _513  and  _514
REMARK  209  A    between atoms: _514  and  _515
REMARK  210  A    between atoms: _519  and  _521
REMARK  211  A    between atoms: _521  and  _522
REMARK  212  A    between atoms: _521  and  _524
REMARK  213  A    between atoms: _524  and  _525
REMARK  214  A    between atoms: _525  and  _526
REMARK  215  A    between atoms: _529  and  _531
REMARK  216  A    between atoms: _531  and  _532
REMARK  217  A    between atoms: _531  and  _534
REMARK  218  A    between atoms: _534  and  _535
REMARK  219  A    between atoms: _538  and  _540
REMARK  220  A    between atoms: _540  and  _541
REMARK  221  A    between atoms: _540  and  _543
REMARK  222  A    between atoms: _543  and  _544
REMARK  223  A    between atoms: _544  and  _545
REMARK  224  A    between atoms: _545  and  _546
REMARK  225  A    between atoms: _555  and  _557
REMARK  226  A    between atoms: _557  and  _558
REMARK  227  A    between atoms: _557  and  _560
REMARK  228  A    between atoms: _560  and  _561
REMARK  229  A    between atoms: _564  and  _566
REMARK  230  A    between atoms: _566  and  _567
REMARK  231  A    between atoms: _566  and  _569
REMARK  232  A    between atoms: _569  and  _570
REMARK  233  A    between atoms: _575  and  _577
REMARK  234  A    between atoms: _577  and  _578
REMARK  235  A    between atoms: _577  and  _580
REMARK  236  A    between atoms: _580  and  _581
REMARK  237  A    between atoms: _581  and  _582
REMARK  238  A    between atoms: _582  and  _583
REMARK  239  A    between atoms: _592  and  _594
REMARK  240  A    between atoms: _594  and  _595
REMARK  241  A    between atoms: _594  and  _597
REMARK  242  A    between atoms: _597  and  _598
REMARK  243  A    between atoms: _598  and  _599
REMARK  244  A    between atoms: _601  and  _603
REMARK  245  A    between atoms: _603  and  _604
REMARK  246  A    between atoms: _603  and  _606
REMARK  247  A    between atoms: _606  and  _607
REMARK  248  A    between atoms: _607  and  _608
REMARK  249  A    between atoms: _610  and  _612
REMARK  250  A    between atoms: _612  and  _613
REMARK  251  A    between atoms: _612  and  _615
REMARK  252  A    between atoms: _615  and  _616
REMARK  253  A    between atoms: _616  and  _617
REMARK  254  A    between atoms: _617  and  _618
REMARK  255  A    between atoms: _618  and  _619
REMARK  256  A    between atoms: _623  and  _625
REMARK  257  A    between atoms: _625  and  _626
REMARK  258  A    between atoms: _625  and  _628
REMARK  259  A    between atoms: _628  and  _629
REMARK                            x       y       z     vdW  Elec       q    Type
REMARK                         _______ _______ _______ _____ _____    ______ ____
ROOT
ATOM      1  NE  ARG A   1      61.515   3.704  33.432  0.00  0.00    -0.265 N 
ATOM      2  HE  ARG A   1      62.496   3.362  33.491  0.00  0.00    +0.259 HD
ATOM      3  CZ  ARG A   1      61.313   4.944  32.998  0.00  0.00    +0.342 C 
ATOM      4  NH2 ARG A   1      60.064   5.442  32.893  0.00  0.00    -0.292 N 
ATOM      5 HH21 ARG A   1      59.246   4.854  33.153  0.00  0.00    +0.255 HD
ATOM      6 HH22 ARG A   1      59.919   6.414  32.552  0.00  0.00    +0.255 HD
ATOM      7  NH1 ARG A   1      62.367   5.702  32.677  0.00  0.00    -0.292 N 
ATOM      8 HH11 ARG A   1      63.330   5.319  32.768  0.00  0.00    +0.255 HD
ATOM      9 HH12 ARG A   1      62.224   6.674  32.336  0.00  0.00    +0.255 HD
ENDROOT
BRANCH   1  10
ATOM     10  CD  ARG A   1      60.445   2.788  33.833  0.00  0.00    +0.174 C 
BRANCH  10  11
ATOM     11  CG  ARG A   1      61.018   1.410  34.099  0.00  0.00    +0.045 C 
BRANCH  11  12
ATOM     12  CB  ARG A   1      60.006   0.519  34.832  0.00  0.00    +0.029 C 
BRANCH  12  13
ATOM     13  CA  ARG A   1      60.401  -0.964  34.774  0.00  0.00    +0.133 C 
BRANCH  13  14
ATOM     14  N   ARG A   1      60.256  -1.466  33.406  0.00  0.00    -0.239 NA
ATOM     15  H   ARG A   1      59.671  -0.942  32.725  0.00  0.00    +0.142 HD
ENDBRANCH  13  14
BRANCH  13  16
ATOM     16  C   ARG A   1      59.681  -1.765  35.854  0.00  0.00    +0.224 C 
ATOM     17  O   ARG A   1      60.054  -1.695  37.022  0.00  0.00    -0.287 OA
ENDBRANCH  13  16
ENDBRANCH  12  13
ENDBRANCH  11  12
ENDBRANCH  10  11
ENDBRANCH   1  10
TORSDOF 6
REMARK  Name = ../refined-set-2016/2pq9/2pq9_pocket.pdb
REMARK  259 active torsions:
REMARK  status: ('A' for Active; 'I' for Inactive)
REMARK    1  A    between atoms: _1  and  _3
REMARK    2  A    between atoms: _3  and  _4
REMARK    3  A    between atoms: _3  and  _6
REMARK    4  A    between atoms: _6  and  _7
REMARK    5  A    between atoms: _9  and  _11
REMARK    6  A    between atoms: _11  and  _12
REMARK    7  A    between atoms: _11  and  _14
REMARK    8  A    between atoms: _14  and  _15
REMARK    9  A    between atoms: _15  and  _16
REMARK   10  A    between atoms: _16  and  _17
REMARK   11  A    between atoms: _17  and  _18
REMARK   12  A    between atoms: _22  and  _24
REMARK   13  A    between atoms: _24  and  _25
REMARK   14  A    between atoms: _24  and  _27
REMARK   15  A    between atoms: _27  and  _28
REMARK   16  A    between atoms: _30  and  _32
REMARK   17  A    between atoms: _32  and  _33
REMARK   18  A    between atoms: _32  and  _35
REMARK   19  A    between atoms: _38  and  _40
REMARK   20  A    between atoms: _40  and  _41
REMARK   21  A    between atoms: _40  and  _43
REMARK   22  A    between atoms: _43  and  _44
REMARK   23  A    between atoms: _46  and  _48
REMARK   24  A    between atoms: _48  and  _49
REMARK   25  A    between atoms: _48  and  _51
REMARK   26  A    between atoms: _51  and  _52
REMARK   27  A    between atoms: _57  and  _59
REMARK   28  A    between atoms: _59  and  _60
REMARK   29  A    between atoms: _59  and  _62
REMARK   30  A    between atoms: _62  and  _63
REMARK   31  A    between atoms: _63  and  _64
REMARK   32  A    between atoms: _64  and  _65
REMARK   33  A    between atoms: _74  and  _76
REMARK   34  A    between atoms: _76  and  _77
REMARK   35  A    between atoms: _76  and  _79
REMARK   36  A    between atoms: _79  and  _80
REMARK   37  A    between atoms: _83  and  _85
REMARK   38  A    between atoms: _85  and  _86
REMARK   39  A    between atoms: _85  and  _88
REMARK   40  A    between atoms: _88  and  _89
REMARK   41  A    between atoms: _92  and  _94
REMARK   42  A    between atoms: _94  and  _95
REMARK   43  A    between atoms: _97  and  _99
REMARK   44  A    between atoms: _99  and  _100
REMARK   45  A    between atoms: _99  and  _102
REMARK   46  A    between atoms: _102  and  _103
REMARK   47  A    between atoms: _108  and  _110
REMARK   48  A    between atoms: _110  and  _111
REMARK   49  A    between atoms: _114  and  _116
REMARK   50  A    between atoms: _116  and  _117
REMARK   51  A    between atoms: _119  and  _121
REMARK   52  A    between atoms: _121  and  _122
REMARK   53  A    between atoms: _121  and  _124
REMARK   54  A    between atoms: _124  and  _125
REMARK   55  A    between atoms: _128  and  _130
REMARK   56  A    between atoms: _130  and  _131
REMARK   57  A    between atoms: _134  and  _136
REMARK   58  A    between atoms: _136  and  _137
REMARK   59  A    between atoms: _136  and  _139
REMARK   60  A    between atoms: _139  and  _140
REMARK   61  A    between atoms: _140  and  _141
REMARK   62  A    between atoms: _143  and  _145
REMARK   63  A    between atoms: _145  and  _146
REMARK   64  A    between atoms: _145  and  _148
REMARK   65  A    between atoms: _148  and  _149
REMARK   66  A    between atoms: _149  and  _150
REMARK   67  A    between atoms: _150  and  _151
REMARK   68  A    between atoms: _161  and  _162
REMARK   69  A    between atoms: _167  and  _169
REMARK   70  A    between atoms: _169  and  _170
REMARK   71  A    between atoms: _169  and  _172
REMARK   72  A    between atoms: _172  and  _173
REMARK   73  A    between atoms: _173  and  _174
REMARK   74  A    between atoms: _174  and  _175
REMARK   75  A    between atoms: _184  and  _186
REMARK   76  A    between atoms: _186  and  _187
REMARK   77  A    between atoms: _186  and  _189
REMARK   78  A    between atoms: _189  and  _190
REMARK   79  A    between atoms: _190  and  _191
REMARK   80  A    between atoms: _193  and  _195
REMARK   81  A    between atoms: _195  and  _196
REMARK   82  A    between atoms: _195  and  _198
REMARK   83  A    between atoms: _198  and  _199
REMARK   84  A    between atoms: _199  and  _200
REMARK   85  A    between atoms: _200  and  _201
REMARK   86  A    between atoms: _211  and  _212
REMARK   87  A    between atoms: _217  and  _219
REMARK   88  A    between atoms: _219  and  _220
REMARK   89  A    between atoms: _222  and  _224
REMARK   90  A    between atoms: _224  and  _225
REMARK   91  A    between atoms: _224  and  _227
REMARK   92  A    between atoms: _230  and  _232
REMARK   93  A    between atoms: _232  and  _233
REMARK   94  A    between atoms: _232  and  _235
REMARK   95  A    between atoms: _235  and  _236
REMARK   96  A    between atoms: _238  and  _240
REMARK   97  A    between atoms: _240  and  _241
REMARK   98  A    between atoms: _240  and  _243
REMARK   99  A    between atoms: _243  and  _244
REMARK  100  A    between atoms: _246  and  _248
REMARK  101  A    between atoms: _248  and  _249
REMARK  102  A    between atoms: _248  and  _251
REMARK  103  A    between atoms: _251  and  _252
REMARK  104  A    between atoms: _252  and  _253
REMARK  105  A    between atoms: _258  and  _260
REMARK  106  A    between atoms: _260  and  _261
REMARK  107  A    between atoms: _260  and  _263
REMARK  108  A    between atoms: _263  and  _264
REMARK  109  A    between atoms: _270  and  _272
REMARK  110  A    between atoms: _272  and  _273
REMARK  111  A    between atoms: _272  and  _275
REMARK  112  A    between atoms: _275  and  _276
REMARK  113  A    between atoms: _279  and  _281
REMARK  114  A    between atoms: _281  and  _282
REMARK  115  A    between atoms: _281  and  _284
REMARK  116  A    between atoms: _284  and  _285
REMARK  117  A    between atoms: _288  and  _290
REMARK  118  A    between atoms: _290  and  _291
REMARK  119  A    between atoms: _294  and  _296
REMARK  120  A    between atoms: _296  and  _297
REMARK  121  A    between atoms: _296  and  _299
REMARK  122  A    between atoms: _299  and  _300
REMARK  123  A    between atoms: _303  and  _305
REMARK  124  A    between atoms: _305  and  _306
REMARK  125  A    between atoms: _305  and  _308
REMARK  126  A    between atoms: _311  and  _313
REMARK  127  A    between atoms: _313  and  _314
REMARK  128  A    between atoms: _313  and  _316
REMARK  129  A    between atoms: _316  and  _317
REMARK  130  A    between atoms: _319  and  _321
REMARK  131  A    between atoms: _321  and  _322
REMARK  132  A    between atoms: _321  and  _324
REMARK  133  A    between atoms: _324  and  _325
REMARK  134  A    between atoms: _325  and  _326
REMARK  135  A    between atoms: _326  and  _327
REMARK  136  A    between atoms: _327  and  _328
REMARK  137  A    between atoms: _333  and  _334
REMARK  138  A    between atoms: _339  and  _341
REMARK  139  A    between atoms: _341  and  _342
REMARK  140  A    between atoms: _341  and  _344
REMARK  141  A    between atoms: _344  and  _345
REMARK  142  A    between atoms: _350  and  _351
REMARK  143  A    between atoms: _353  and  _355
REMARK  144  A    between atoms: _355  and  _356
REMARK  145  A    between atoms: _355  and  _358
REMARK  146  A    between atoms: _358  and  _359
REMARK  147  A    between atoms: _362  and  _364
REMARK  148  A    between atoms: _364  and  _365
REMARK  149  A    between atoms: _364  and  _367
REMARK  150  A    between atoms: _367  and  _368
REMARK  151  A    between atoms: _371  and  _373
REMARK  152  A    between atoms: _373  and  _374
REMARK  153  A    between atoms: _373  and  _376
REMARK  154  A    between atoms: _376  and  _377
REMARK  155  A    between atoms: _380  and  _382
REMARK  156  A    between atoms: _382  and  _383
REMARK  157  A    between atoms: _382  and  _385
REMARK  158  A    between atoms: _385  and  _386
REMARK  159  A    between atoms: _389  and  _391
REMARK  160  A    between atoms: _391  and  _392
REMARK  161  A    between atoms: _391  and  _394
REMARK  162  A    between atoms: _394  and  _395
REMARK  163  A    between atoms: _397  and  _399
REMARK  164  A    between atoms: _399  and  _400
REMARK  165  A    between atoms: _399  and  _402
REMARK  166  A    between atoms: _402  and  _403
REMARK  167  A    between atoms: _408  and  _409
REMARK  168  A    between atoms: _411  and  _413
REMARK  169  A    between atoms: _413  and  _414
REMARK  170  A    between atoms: _413  and  _416
REMARK  171  A    between atoms: _416  and  _417
REMARK  172  A    between atoms: _420  and  _422
REMARK  173  A    between atoms: _422  and  _423
REMARK  174  A    between atoms: _422  and  _425
REMARK  175  A    between atoms: _425  and  _426
REMARK  176  A    between atoms: _431  and  _433
REMARK  177  A    between atoms: _433  and  _434
REMARK  178  A    between atoms: _433  and  _436
REMARK  179  A    between atoms: _436  and  _437
REMARK  180  A    between atoms: _441  and  _442
REMARK  181  A    between atoms: _447  and  _449
REMARK  182  A    between atoms: _449  and  _450
REMARK  183  A    between atoms: _449  and  _452
REMARK  184  A    between atoms: _452  and  _453
REMARK  185  A    between atoms: _456  and  _458
REMARK  186  A    between atoms: _458  and  _459
REMARK  187  A    between atoms: _462  and  _464
REMARK  188  A    between atoms: _464  and  _465
REMARK  189  A    between atoms: _464  and  _467
REMARK  190  A    between atoms: _467  and  _468
REMARK  191  A    between atoms: _468  and  _469
REMARK  192  A    between atoms: _471  and  _473
REMARK  193  A    between atoms: _473  and  _474
REMARK  194  A    between atoms: _473  and  _476
REMARK  195  A    between atoms: _476  and  _477
REMARK  196  A    between atoms: _482  and  _484
REMARK  197  A    between atoms: _484  and  _485
REMARK  198  A    between atoms: _484  and  _487
REMARK  199  A    between atoms: _487  and  _488
REMARK  200  A    between atoms: _498  and  _500
REMARK  201  A    between atoms: _500  and  _501
REMARK  202  A    between atoms: _500  and  _503
REMARK  203  A    between atoms: _506  and  _508
REMARK  204  A    between atoms: _508  and  _509
REMARK  205  A    between atoms: _508  and  _511
REMARK  206  A    between atoms: _511  and  _512
REMARK  207  A    between atoms: _512  and  _513
REMARK  208  A    between atoms: _513  and  _514
REMARK  209  A    between atoms: _514  and  _515
REMARK  210  A    between atoms: _519  and  _521
REMARK  211  A    between atoms: _521  and  _522
REMARK  212  A    between atoms: _521  and  _524
REMARK  213  A    between atoms: _524  and  _525
REMARK  214  A    between atoms: _525  and  _526
REMARK  215  A    between atoms: _529  and  _531
REMARK  216  A    between atoms: _531  and  _532
REMARK  217  A    between atoms: _531  and  _534
REMARK  218  A    between atoms: _534  and  _535
REMARK  219  A    between atoms: _538  and  _540
REMARK  220  A    between atoms: _540  and  _541
REMARK  221  A    between atoms: _540  and  _543
REMARK  222  A    between atoms: _543  and  _544
REMARK  223  A    between atoms: _544  and  _545
REMARK  224  A    between atoms: _545  and  _546
REMARK  225  A    between atoms: _555  and  _557
REMARK  226  A    between atoms: _557  and  _558
REMARK  227  A    between atoms: _557  and  _560
REMARK  228  A    between atoms: _560  and  _561
REMARK  229  A    between atoms: _564  and  _566
REMARK  230  A    between atoms: _566  and  _567
REMARK  231  A    between atoms: _566  and  _569
REMARK  232  A    between atoms: _569  and  _570
REMARK  233  A    between atoms: _575  and  _577
REMARK  234  A    between atoms: _577  and  _578
REMARK  235  A    between atoms: _577  and  _580
REMARK  236  A    between atoms: _580  and  _581
REMARK  237  A    between atoms: _581  and  _582
REMARK  238  A    between atoms: _582  and  _583
REMARK  239  A    between atoms: _592  and  _594
REMARK  240  A    between atoms: _594  and  _595
REMARK  241  A    between atoms: _594  and  _597
REMARK  242  A    between atoms: _597  and  _598
REMARK  243  A    between atoms: _598  and  _599
REMARK  244  A    between atoms: _601  and  _603
REMARK  245  A    between atoms: _603  and  _604
REMARK  246  A    between atoms: _603  and  _606
REMARK  247  A    between atoms: _606  and  _607
REMARK  248  A    between atoms: _607  and  _608
REMARK  249  A    between atoms: _610  and  _612
REMARK  250  A    between atoms: _612  and  _613
REMARK  251  A    between atoms: _612  and  _615
REMARK  252  A    between atoms: _615  and  _616
REMARK  253  A    between atoms: _616  and  _617
REMARK  254  A    between atoms: _617  and  _618
REMARK  255  A    between atoms: _618  and  _619
REMARK  256  A    between atoms: _623  and  _625
REMARK  257  A    between atoms: _625  and  _626
REMARK  258  A    between atoms: _625  and  _628
REMARK  259  A    between atoms: _628  and  _629
REMARK                            x       y       z     vdW  Elec       q    Type
REMARK                         _______ _______ _______ _____ _____    ______ ____
ROOT
ATOM      1  CA  ARG A   3      65.200   6.690  36.760  0.00  0.00    +0.149 C 
ENDROOT
BRANCH   1   4
ATOM      2  C   HIS A   2      67.297   7.093  35.662  0.00  0.00    +0.241 C 
ATOM      3  O   HIS A   2      67.799   7.393  36.751  0.00  0.00    -0.273 OA
ATOM      4  N   ARG A   3      66.032   6.693  35.557  0.00  0.00    -0.297 N 
ATOM      5  H   ARG A   3      65.644   6.390  34.641  0.00  0.00    +0.150 HD
BRANCH   2   6
ATOM      6  CA  HIS A   2      68.148   7.142  34.387  0.00  0.00    +0.155 C 
BRANCH   6   9
ATOM      7  C   ASP A   1      67.851   4.753  33.890  0.00  0.00    +0.239 C 
ATOM      8  O   ASP A   1      68.009   4.422  35.062  0.00  0.00    -0.274 OA
ATOM      9  N   HIS A   2      67.897   6.021  33.472  0.00  0.00    -0.297 N 
ATOM     10  H   HIS A   2      67.750   6.222  32.462  0.00  0.00    +0.150 HD
BRANCH   7  11
ATOM     11  CA  ASP A   1      67.556   3.699  32.822  0.00  0.00    +0.156 C 
BRANCH  11  12
ATOM     12  N   ASP A   1      68.734   2.877  32.552  0.00  0.00    -0.238 NA
ATOM     13  H   ASP A   1      69.093   2.263  33.311  0.00  0.00    +0.142 HD
ENDBRANCH  11  12
BRANCH  11  14
ATOM     14  CB  ASP A   1      66.419   2.781  33.300  0.00  0.00    +0.140 C 
BRANCH  14  15
ATOM     15  CG  ASP A   1      65.095   3.509  33.522  0.00  0.00    +0.367 C 
ATOM     16  OD2 ASP A   1      64.110   2.804  33.804  0.00  0.00    -0.246 OA
ATOM     17  OD1 ASP A   1      65.036   4.753  33.440  0.00  0.00    -0.246 OA
ENDBRANCH  14  15
ENDBRANCH  11  14
ENDBRANCH   7  11
ENDBRANCH   6   9
BRANCH   6  18
ATOM     18  CB  HIS A   2      67.925   8.494  33.653  0.00  0.00    +0.076 C 
BRANCH  18  19
ATOM     19  CG  HIS A   2      66.542   8.677  33.092  0.00  0.00    +0.082 A 
ATOM     20  ND1 HIS A   2      65.953   9.918  33.000  0.00  0.00    -0.227 NA
ATOM     21  CE1 HIS A   2      64.750   9.801  32.465  0.00  0.00    +0.199 A 
ATOM     22  NE2 HIS A   2      64.533   8.526  32.204  0.00  0.00    -0.221 NA
ATOM     23  CD2 HIS A   2      65.642   7.798  32.584  0.00  0.00    +0.115 A 
ENDBRANCH  18  19
ENDBRANCH   6  18
ENDBRANCH   2   6
ENDBRANCH   1   4
BRANCH   1  24
ATOM     24  C   ARG A   3      65.516   5.549  37.715  0.00  0.00    +0.241 C 
ATOM     25  O   ARG A   3      65.264   5.667  38.914  0.00  0.00    -0.273 OA
ATOM     26  N   MET A   4      66.073   4.441  37.222  0.00  0.00    -0.298 N 
ATOM     27  H   MET A   4      66.233   4.329  36.201  0.00  0.00    +0.150 HD
BRANCH  26  28
ATOM     28  CA  MET A   4      66.452   3.387  38.168  0.00  0.00    +0.138 C 
BRANCH  28  29
ATOM     29  C   MET A   4      67.586   3.916  39.073  0.00  0.00    +0.227 C 
ATOM     30  O   MET A   4      67.594   3.706  40.291  0.00  0.00    -0.286 OA
ENDBRANCH  28  29
BRANCH  28  31
ATOM     31  CB  MET A   4      66.883   2.122  37.430  0.00  0.00    +0.039 C 
BRANCH  31  32
ATOM     32  CG  MET A   4      65.711   1.394  36.782  0.00  0.00    +0.060 C 
BRANCH  32  33
ATOM     33  SD  MET A   4      64.574   0.655  38.028  0.00  0.00    -0.139 S 
ATOM     34  CE  MET A   4      65.672  -0.529  38.846  0.00  0.00    +0.069 C 
ENDBRANCH  32  33
ENDBRANCH  31  32
ENDBRANCH  28  31
ENDBRANCH  26  28
ENDBRANCH   1  24
BRANCH   1  35
ATOM     35  CB  ARG A   3      63.715   6.727  36.384  0.00  0.00    +0.033 C 
BRANCH  35  36
ATOM     36  CG  ARG A   3      63.400   7.956  35.537  0.00  0.00    +0.045 C 
BRANCH  36  37
ATOM     37  CD  ARG A   3      61.907   8.354  35.562  0.00  0.00    +0.174 C 
BRANCH  37  38
ATOM     38  NE  ARG A   3      61.746   9.397  34.555  0.00  0.00    -0.265 N 
ATOM     39  CZ  ARG A   3      62.094  10.672  34.707  0.00  0.00    +0.342 C 
ATOM     40  NH2 ARG A   3      62.564  11.143  35.872  0.00  0.00    -0.292 N 
ATOM     41 HH21 ARG A   3      62.665  10.506  36.688  0.00  0.00    +0.255 HD
ATOM     42 HH22 ARG A   3      62.828  12.145  35.959  0.00  0.00    +0.255 HD
ATOM     43  NH1 ARG A   3      61.926  11.498  33.681  0.00  0.00    -0.292 N 
ATOM     44 HH11 ARG A   3      62.189  12.500  33.772  0.00  0.00    +0.255 HD
ATOM     45 HH12 ARG A   3      61.531  11.143  32.787  0.00  0.00    +0.255 HD
ATOM     46  HE  ARG A   3      61.325   9.122  33.645  0.00  0.00    +0.259 HD
ENDBRANCH  37  38
ENDBRANCH  36  37
ENDBRANCH  35  36
ENDBRANCH   1  35
TORSDOF 19
REMARK  Name = ../refined-set-2016/2pq9/2pq9_pocket.pdb
REMARK  259 active torsions:
REMARK  status: ('A' for Active; 'I' for Inactive)
REMARK    1  A    between atoms: _1  and  _3
REMARK    2  A    between atoms: _3  and  _4
REMARK    3  A    between atoms: _3  and  _6
REMARK    4  A    between atoms: _6  and  _7
REMARK    5  A    between atoms: _9  and  _11
REMARK    6  A    between atoms: _11  and  _12
REMARK    7  A    between atoms: _11  and  _14
REMARK    8  A    between atoms: _14  and  _15
REMARK    9  A    between atoms: _15  and  _16
REMARK   10  A    between atoms: _16  and  _17
REMARK   11  A    between atoms: _17  and  _18
REMARK   12  A    between atoms: _22  and  _24
REMARK   13  A    between atoms: _24  and  _25
REMARK   14  A    between atoms: _24  and  _27
REMARK   15  A    between atoms: _27  and  _28
REMARK   16  A    between atoms: _30  and  _32
REMARK   17  A    between atoms: _32  and  _33
REMARK   18  A    between atoms: _32  and  _35
REMARK   19  A    between atoms: _38  and  _40
REMARK   20  A    between atoms: _40  and  _41
REMARK   21  A    between atoms: _40  and  _43
REMARK   22  A    between atoms: _43  and  _44
REMARK   23  A    between atoms: _46  and  _48
REMARK   24  A    between atoms: _48  and  _49
REMARK   25  A    between atoms: _48  and  _51
REMARK   26  A    between atoms: _51  and  _52
REMARK   27  A    between atoms: _57  and  _59
REMARK   28  A    between atoms: _59  and  _60
REMARK   29  A    between atoms: _59  and  _62
REMARK   30  A    between atoms: _62  and  _63
REMARK   31  A    between atoms: _63  and  _64
REMARK   32  A    between atoms: _64  and  _65
REMARK   33  A    between atoms: _74  and  _76
REMARK   34  A    between atoms: _76  and  _77
REMARK   35  A    between atoms: _76  and  _79
REMARK   36  A    between atoms: _79  and  _80
REMARK   37  A    between atoms: _83  and  _85
REMARK   38  A    between atoms: _85  and  _86
REMARK   39  A    between atoms: _85  and  _88
REMARK   40  A    between atoms: _88  and  _89
REMARK   41  A    between atoms: _92  and  _94
REMARK   42  A    between atoms: _94  and  _95
REMARK   43  A    between atoms: _97  and  _99
REMARK   44  A    between atoms: _99  and  _100
REMARK   45  A    between atoms: _99  and  _102
REMARK   46  A    between atoms: _102  and  _103
REMARK   47  A    between atoms: _108  and  _110
REMARK   48  A    between atoms: _110  and  _111
REMARK   49  A    between atoms: _114  and  _116
REMARK   50  A    between atoms: _116  and  _117
REMARK   51  A    between atoms: _119  and  _121
REMARK   52  A    between atoms: _121  and  _122
REMARK   53  A    between atoms: _121  and  _124
REMARK   54  A    between atoms: _124  and  _125
REMARK   55  A    between atoms: _128  and  _130
REMARK   56  A    between atoms: _130  and  _131
REMARK   57  A    between atoms: _134  and  _136
REMARK   58  A    between atoms: _136  and  _137
REMARK   59  A    between atoms: _136  and  _139
REMARK   60  A    between atoms: _139  and  _140
REMARK   61  A    between atoms: _140  and  _141
REMARK   62  A    between atoms: _143  and  _145
REMARK   63  A    between atoms: _145  and  _146
REMARK   64  A    between atoms: _145  and  _148
REMARK   65  A    between atoms: _148  and  _149
REMARK   66  A    between atoms: _149  and  _150
REMARK   67  A    between atoms: _150  and  _151
REMARK   68  A    between atoms: _161  and  _162
REMARK   69  A    between atoms: _167  and  _169
REMARK   70  A    between atoms: _169  and  _170
REMARK   71  A    between atoms: _169  and  _172
REMARK   72  A    between atoms: _172  and  _173
REMARK   73  A    between atoms: _173  and  _174
REMARK   74  A    between atoms: _174  and  _175
REMARK   75  A    between atoms: _184  and  _186
REMARK   76  A    between atoms: _186  and  _187
REMARK   77  A    between atoms: _186  and  _189
REMARK   78  A    between atoms: _189  and  _190
REMARK   79  A    between atoms: _190  and  _191
REMARK   80  A    between atoms: _193  and  _195
REMARK   81  A    between atoms: _195  and  _196
REMARK   82  A    between atoms: _195  and  _198
REMARK   83  A    between atoms: _198  and  _199
REMARK   84  A    between atoms: _199  and  _200
REMARK   85  A    between atoms: _200  and  _201
REMARK   86  A    between atoms: _211  and  _212
REMARK   87  A    between atoms: _217  and  _219
REMARK   88  A    between atoms: _219  and  _220
REMARK   89  A    between atoms: _222  and  _224
REMARK   90  A    between atoms: _224  and  _225
REMARK   91  A    between atoms: _224  and  _227
REMARK   92  A    between atoms: _230  and  _232
REMARK   93  A    between atoms: _232  and  _233
REMARK   94  A    between atoms: _232  and  _235
REMARK   95  A    between atoms: _235  and  _236
REMARK   96  A    between atoms: _238  and  _240
REMARK   97  A    between atoms: _240  and  _241
REMARK   98  A    between atoms: _240  and  _243
REMARK   99  A    between atoms: _243  and  _244
REMARK  100  A    between atoms: _246  and  _248
REMARK  101  A    between atoms: _248  and  _249
REMARK  102  A    between atoms: _248  and  _251
REMARK  103  A    between atoms: _251  and  _252
REMARK  104  A    between atoms: _252  and  _253
REMARK  105  A    between atoms: _258  and  _260
REMARK  106  A    between atoms: _260  and  _261
REMARK  107  A    between atoms: _260  and  _263
REMARK  108  A    between atoms: _263  and  _264
REMARK  109  A    between atoms: _270  and  _272
REMARK  110  A    between atoms: _272  and  _273
REMARK  111  A    between atoms: _272  and  _275
REMARK  112  A    between atoms: _275  and  _276
REMARK  113  A    between atoms: _279  and  _281
REMARK  114  A    between atoms: _281  and  _282
REMARK  115  A    between atoms: _281  and  _284
REMARK  116  A    between atoms: _284  and  _285
REMARK  117  A    between atoms: _288  and  _290
REMARK  118  A    between atoms: _290  and  _291
REMARK  119  A    between atoms: _294  and  _296
REMARK  120  A    between atoms: _296  and  _297
REMARK  121  A    between atoms: _296  and  _299
REMARK  122  A    between atoms: _299  and  _300
REMARK  123  A    between atoms: _303  and  _305
REMARK  124  A    between atoms: _305  and  _306
REMARK  125  A    between atoms: _305  and  _308
REMARK  126  A    between atoms: _311  and  _313
REMARK  127  A    between atoms: _313  and  _314
REMARK  128  A    between atoms: _313  and  _316
REMARK  129  A    between atoms: _316  and  _317
REMARK  130  A    between atoms: _319  and  _321
REMARK  131  A    between atoms: _321  and  _322
REMARK  132  A    between atoms: _321  and  _324
REMARK  133  A    between atoms: _324  and  _325
REMARK  134  A    between atoms: _325  and  _326
REMARK  135  A    between atoms: _326  and  _327
REMARK  136  A    between atoms: _327  and  _328
REMARK  137  A    between atoms: _333  and  _334
REMARK  138  A    between atoms: _339  and  _341
REMARK  139  A    between atoms: _341  and  _342
REMARK  140  A    between atoms: _341  and  _344
REMARK  141  A    between atoms: _344  and  _345
REMARK  142  A    between atoms: _350  and  _351
REMARK  143  A    between atoms: _353  and  _355
REMARK  144  A    between atoms: _355  and  _356
REMARK  145  A    between atoms: _355  and  _358
REMARK  146  A    between atoms: _358  and  _359
REMARK  147  A    between atoms: _362  and  _364
REMARK  148  A    between atoms: _364  and  _365
REMARK  149  A    between atoms: _364  and  _367
REMARK  150  A    between atoms: _367  and  _368
REMARK  151  A    between atoms: _371  and  _373
REMARK  152  A    between atoms: _373  and  _374
REMARK  153  A    between atoms: _373  and  _376
REMARK  154  A    between atoms: _376  and  _377
REMARK  155  A    between atoms: _380  and  _382
REMARK  156  A    between atoms: _382  and  _383
REMARK  157  A    between atoms: _382  and  _385
REMARK  158  A    between atoms: _385  and  _386
REMARK  159  A    between atoms: _389  and  _391
REMARK  160  A    between atoms: _391  and  _392
REMARK  161  A    between atoms: _391  and  _394
REMARK  162  A    between atoms: _394  and  _395
REMARK  163  A    between atoms: _397  and  _399
REMARK  164  A    between atoms: _399  and  _400
REMARK  165  A    between atoms: _399  and  _402
REMARK  166  A    between atoms: _402  and  _403
REMARK  167  A    between atoms: _408  and  _409
REMARK  168  A    between atoms: _411  and  _413
REMARK  169  A    between atoms: _413  and  _414
REMARK  170  A    between atoms: _413  and  _416
REMARK  171  A    between atoms: _416  and  _417
REMARK  172  A    between atoms: _420  and  _422
REMARK  173  A    between atoms: _422  and  _423
REMARK  174  A    between atoms: _422  and  _425
REMARK  175  A    between atoms: _425  and  _426
REMARK  176  A    between atoms: _431  and  _433
REMARK  177  A    between atoms: _433  and  _434
REMARK  178  A    between atoms: _433  and  _436
REMARK  179  A    between atoms: _436  and  _437
REMARK  180  A    between atoms: _441  and  _442
REMARK  181  A    between atoms: _447  and  _449
REMARK  182  A    between atoms: _449  and  _450
REMARK  183  A    between atoms: _449  and  _452
REMARK  184  A    between atoms: _452  and  _453
REMARK  185  A    between atoms: _456  and  _458
REMARK  186  A    between atoms: _458  and  _459
REMARK  187  A    between atoms: _462  and  _464
REMARK  188  A    between atoms: _464  and  _465
REMARK  189  A    between atoms: _464  and  _467
REMARK  190  A    between atoms: _467  and  _468
REMARK  191  A    between atoms: _468  and  _469
REMARK  192  A    between atoms: _471  and  _473
REMARK  193  A    between atoms: _473  and  _474
REMARK  194  A    between atoms: _473  and  _476
REMARK  195  A    between atoms: _476  and  _477
REMARK  196  A    between atoms: _482  and  _484
REMARK  197  A    between atoms: _484  and  _485
REMARK  198  A    between atoms: _484  and  _487
REMARK  199  A    between atoms: _487  and  _488
REMARK  200  A    between atoms: _498  and  _500
REMARK  201  A    between atoms: _500  and  _501
REMARK  202  A    between atoms: _500  and  _503
REMARK  203  A    between atoms: _506  and  _508
REMARK  204  A    between atoms: _508  and  _509
REMARK  205  A    between atoms: _508  and  _511
REMARK  206  A    between atoms: _511  and  _512
REMARK  207  A    between atoms: _512  and  _513
REMARK  208  A    between atoms: _513  and  _514
REMARK  209  A    between atoms: _514  and  _515
REMARK  210  A    between atoms: _519  and  _521
REMARK  211  A    between atoms: _521  and  _522
REMARK  212  A    between atoms: _521  and  _524
REMARK  213  A    between atoms: _524  and  _525
REMARK  214  A    between atoms: _525  and  _526
REMARK  215  A    between atoms: _529  and  _531
REMARK  216  A    between atoms: _531  and  _532
REMARK  217  A    between atoms: _531  and  _534
REMARK  218  A    between atoms: _534  and  _535
REMARK  219  A    between atoms: _538  and  _540
REMARK  220  A    between atoms: _540  and  _541
REMARK  221  A    between atoms: _540  and  _543
REMARK  222  A    between atoms: _543  and  _544
REMARK  223  A    between atoms: _544  and  _545
REMARK  224  A    between atoms: _545  and  _546
REMARK  225  A    between atoms: _555  and  _557
REMARK  226  A    between atoms: _557  and  _558
REMARK  227  A    between atoms: _557  and  _560
REMARK  228  A    between atoms: _560  and  _561
REMARK  229  A    between atoms: _564  and  _566
REMARK  230  A    between atoms: _566  and  _567
REMARK  231  A    between atoms: _566  and  _569
REMARK  232  A    between atoms: _569  and  _570
REMARK  233  A    between atoms: _575  and  _577
REMARK  234  A    between atoms: _577  and  _578
REMARK  235  A    between atoms: _577  and  _580
REMARK  236  A    between atoms: _580  and  _581
REMARK  237  A    between atoms: _581  and  _582
REMARK  238  A    between atoms: _582  and  _583
REMARK  239  A    between atoms: _592  and  _594
REMARK  240  A    between atoms: _594  and  _595
REMARK  241  A    between atoms: _594  and  _597
REMARK  242  A    between atoms: _597  and  _598
REMARK  243  A    between atoms: _598  and  _599
REMARK  244  A    between atoms: _601  and  _603
REMARK  245  A    between atoms: _603  and  _604
REMARK  246  A    between atoms: _603  and  _606
REMARK  247  A    between atoms: _606  and  _607
REMARK  248  A    between atoms: _607  and  _608
REMARK  249  A    between atoms: _610  and  _612
REMARK  250  A    between atoms: _612  and  _613
REMARK  251  A    between atoms: _612  and  _615
REMARK  252  A    between atoms: _615  and  _616
REMARK  253  A    between atoms: _616  and  _617
REMARK  254  A    between atoms: _617  and  _618
REMARK  255  A    between atoms: _618  and  _619
REMARK  256  A    between atoms: _623  and  _625
REMARK  257  A    between atoms: _625  and  _626
REMARK  258  A    between atoms: _625  and  _628
REMARK  259  A    between atoms: _628  and  _629
REMARK                            x       y       z     vdW  Elec       q    Type
REMARK                         _______ _______ _______ _____ _____    ______ ____
ROOT
ATOM      1  CA  MET A   1      67.821   8.157  40.754  0.00  0.00    +0.134 C 
ENDROOT
BRANCH   1   2
ATOM      2  N   MET A   1      68.275   7.112  39.849  0.00  0.00    -0.239 NA
ATOM      3  H   MET A   1      67.914   7.065  38.875  0.00  0.00    +0.142 HD
ENDBRANCH   1   2
BRANCH   1   4
ATOM      4  C   MET A   1      66.889   7.605  41.834  0.00  0.00    +0.224 C 
ATOM      5  O   MET A   1      66.959   8.006  42.994  0.00  0.00    -0.287 OA
ENDBRANCH   1   4
BRANCH   1   6
ATOM      6  CB  MET A   1      67.167   9.293  39.946  0.00  0.00    +0.037 C 
BRANCH   6   7
ATOM      7  CG  MET A   1      68.208   9.980  39.040  0.00  0.00    +0.059 C 
BRANCH   7   8
ATOM      8  SD  MET A   1      67.657  11.444  38.145  0.00  0.00    -0.139 S 
ATOM      9  CE  MET A   1      66.624  10.665  36.845  0.00  0.00    +0.069 C 
ENDBRANCH   7   8
ENDBRANCH   6   7
ENDBRANCH   1   6
TORSDOF 5
REMARK  Name = ../refined-set-2016/2pq9/2pq9_pocket.pdb
REMARK  259 active torsions:
REMARK  status: ('A' for Active; 'I' for Inactive)
REMARK    1  A    between atoms: _1  and  _3
REMARK    2  A    between atoms: _3  and  _4
REMARK    3  A    between atoms: _3  and  _6
REMARK    4  A    between atoms: _6  and  _7
REMARK    5  A    between atoms: _9  and  _11
REMARK    6  A    between atoms: _11  and  _12
REMARK    7  A    between atoms: _11  and  _14
REMARK    8  A    between atoms: _14  and  _15
REMARK    9  A    between atoms: _15  and  _16
REMARK   10  A    between atoms: _16  and  _17
REMARK   11  A    between atoms: _17  and  _18
REMARK   12  A    between atoms: _22  and  _24
REMARK   13  A    between atoms: _24  and  _25
REMARK   14  A    between atoms: _24  and  _27
REMARK   15  A    between atoms: _27  and  _28
REMARK   16  A    between atoms: _30  and  _32
REMARK   17  A    between atoms: _32  and  _33
REMARK   18  A    between atoms: _32  and  _35
REMARK   19  A    between atoms: _38  and  _40
REMARK   20  A    between atoms: _40  and  _41
REMARK   21  A    between atoms: _40  and  _43
REMARK   22  A    between atoms: _43  and  _44
REMARK   23  A    between atoms: _46  and  _48
REMARK   24  A    between atoms: _48  and  _49
REMARK   25  A    between atoms: _48  and  _51
REMARK   26  A    between atoms: _51  and  _52
REMARK   27  A    between atoms: _57  and  _59
REMARK   28  A    between atoms: _59  and  _60
REMARK   29  A    between atoms: _59  and  _62
REMARK   30  A    between atoms: _62  and  _63
REMARK   31  A    between atoms: _63  and  _64
REMARK   32  A    between atoms: _64  and  _65
REMARK   33  A    between atoms: _74  and  _76
REMARK   34  A    between atoms: _76  and  _77
REMARK   35  A    between atoms: _76  and  _79
REMARK   36  A    between atoms: _79  and  _80
REMARK   37  A    between atoms: _83  and  _85
REMARK   38  A    between atoms: _85  and  _86
REMARK   39  A    between atoms: _85  and  _88
REMARK   40  A    between atoms: _88  and  _89
REMARK   41  A    between atoms: _92  and  _94
REMARK   42  A    between atoms: _94  and  _95
REMARK   43  A    between atoms: _97  and  _99
REMARK   44  A    between atoms: _99  and  _100
REMARK   45  A    between atoms: _99  and  _102
REMARK   46  A    between atoms: _102  and  _103
REMARK   47  A    between atoms: _108  and  _110
REMARK   48  A    between atoms: _110  and  _111
REMARK   49  A    between atoms: _114  and  _116
REMARK   50  A    between atoms: _116  and  _117
REMARK   51  A    between atoms: _119  and  _121
REMARK   52  A    between atoms: _121  and  _122
REMARK   53  A    between atoms: _121  and  _124
REMARK   54  A    between atoms: _124  and  _125
REMARK   55  A    between atoms: _128  and  _130
REMARK   56  A    between atoms: _130  and  _131
REMARK   57  A    between atoms: _134  and  _136
REMARK   58  A    between atoms: _136  and  _137
REMARK   59  A    between atoms: _136  and  _139
REMARK   60  A    between atoms: _139  and  _140
REMARK   61  A    between atoms: _140  and  _141
REMARK   62  A    between atoms: _143  and  _145
REMARK   63  A    between atoms: _145  and  _146
REMARK   64  A    between atoms: _145  and  _148
REMARK   65  A    between atoms: _148  and  _149
REMARK   66  A    between atoms: _149  and  _150
REMARK   67  A    between atoms: _150  and  _151
REMARK   68  A    between atoms: _161  and  _162
REMARK   69  A    between atoms: _167  and  _169
REMARK   70  A    between atoms: _169  and  _170
REMARK   71  A    between atoms: _169  and  _172
REMARK   72  A    between atoms: _172  and  _173
REMARK   73  A    between atoms: _173  and  _174
REMARK   74  A    between atoms: _174  and  _175
REMARK   75  A    between atoms: _184  and  _186
REMARK   76  A    between atoms: _186  and  _187
REMARK   77  A    between atoms: _186  and  _189
REMARK   78  A    between atoms: _189  and  _190
REMARK   79  A    between atoms: _190  and  _191
REMARK   80  A    between atoms: _193  and  _195
REMARK   81  A    between atoms: _195  and  _196
REMARK   82  A    between atoms: _195  and  _198
REMARK   83  A    between atoms: _198  and  _199
REMARK   84  A    between atoms: _199  and  _200
REMARK   85  A    between atoms: _200  and  _201
REMARK   86  A    between atoms: _211  and  _212
REMARK   87  A    between atoms: _217  and  _219
REMARK   88  A    between atoms: _219  and  _220
REMARK   89  A    between atoms: _222  and  _224
REMARK   90  A    between atoms: _224  and  _225
REMARK   91  A    between atoms: _224  and  _227
REMARK   92  A    between atoms: _230  and  _232
REMARK   93  A    between atoms: _232  and  _233
REMARK   94  A    between atoms: _232  and  _235
REMARK   95  A    between atoms: _235  and  _236
REMARK   96  A    between atoms: _238  and  _240
REMARK   97  A    between atoms: _240  and  _241
REMARK   98  A    between atoms: _240  and  _243
REMARK   99  A    between atoms: _243  and  _244
REMARK  100  A    between atoms: _246  and  _248
REMARK  101  A    between atoms: _248  and  _249
REMARK  102  A    between atoms: _248  and  _251
REMARK  103  A    between atoms: _251  and  _252
REMARK  104  A    between atoms: _252  and  _253
REMARK  105  A    between atoms: _258  and  _260
REMARK  106  A    between atoms: _260  and  _261
REMARK  107  A    between atoms: _260  and  _263
REMARK  108  A    between atoms: _263  and  _264
REMARK  109  A    between atoms: _270  and  _272
REMARK  110  A    between atoms: _272  and  _273
REMARK  111  A    between atoms: _272  and  _275
REMARK  112  A    between atoms: _275  and  _276
REMARK  113  A    between atoms: _279  and  _281
REMARK  114  A    between atoms: _281  and  _282
REMARK  115  A    between atoms: _281  and  _284
REMARK  116  A    between atoms: _284  and  _285
REMARK  117  A    between atoms: _288  and  _290
REMARK  118  A    between atoms: _290  and  _291
REMARK  119  A    between atoms: _294  and  _296
REMARK  120  A    between atoms: _296  and  _297
REMARK  121  A    between atoms: _296  and  _299
REMARK  122  A    between atoms: _299  and  _300
REMARK  123  A    between atoms: _303  and  _305
REMARK  124  A    between atoms: _305  and  _306
REMARK  125  A    between atoms: _305  and  _308
REMARK  126  A    between atoms: _311  and  _313
REMARK  127  A    between atoms: _313  and  _314
REMARK  128  A    between atoms: _313  and  _316
REMARK  129  A    between atoms: _316  and  _317
REMARK  130  A    between atoms: _319  and  _321
REMARK  131  A    between atoms: _321  and  _322
REMARK  132  A    between atoms: _321  and  _324
REMARK  133  A    between atoms: _324  and  _325
REMARK  134  A    between atoms: _325  and  _326
REMARK  135  A    between atoms: _326  and  _327
REMARK  136  A    between atoms: _327  and  _328
REMARK  137  A    between atoms: _333  and  _334
REMARK  138  A    between atoms: _339  and  _341
REMARK  139  A    between atoms: _341  and  _342
REMARK  140  A    between atoms: _341  and  _344
REMARK  141  A    between atoms: _344  and  _345
REMARK  142  A    between atoms: _350  and  _351
REMARK  143  A    between atoms: _353  and  _355
REMARK  144  A    between atoms: _355  and  _356
REMARK  145  A    between atoms: _355  and  _358
REMARK  146  A    between atoms: _358  and  _359
REMARK  147  A    between atoms: _362  and  _364
REMARK  148  A    between atoms: _364  and  _365
REMARK  149  A    between atoms: _364  and  _367
REMARK  150  A    between atoms: _367  and  _368
REMARK  151  A    between atoms: _371  and  _373
REMARK  152  A    between atoms: _373  and  _374
REMARK  153  A    between atoms: _373  and  _376
REMARK  154  A    between atoms: _376  and  _377
REMARK  155  A    between atoms: _380  and  _382
REMARK  156  A    between atoms: _382  and  _383
REMARK  157  A    between atoms: _382  and  _385
REMARK  158  A    between atoms: _385  and  _386
REMARK  159  A    between atoms: _389  and  _391
REMARK  160  A    between atoms: _391  and  _392
REMARK  161  A    between atoms: _391  and  _394
REMARK  162  A    between atoms: _394  and  _395
REMARK  163  A    between atoms: _397  and  _399
REMARK  164  A    between atoms: _399  and  _400
REMARK  165  A    between atoms: _399  and  _402
REMARK  166  A    between atoms: _402  and  _403
REMARK  167  A    between atoms: _408  and  _409
REMARK  168  A    between atoms: _411  and  _413
REMARK  169  A    between atoms: _413  and  _414
REMARK  170  A    between atoms: _413  and  _416
REMARK  171  A    between atoms: _416  and  _417
REMARK  172  A    between atoms: _420  and  _422
REMARK  173  A    between atoms: _422  and  _423
REMARK  174  A    between atoms: _422  and  _425
REMARK  175  A    between atoms: _425  and  _426
REMARK  176  A    between atoms: _431  and  _433
REMARK  177  A    between atoms: _433  and  _434
REMARK  178  A    between atoms: _433  and  _436
REMARK  179  A    between atoms: _436  and  _437
REMARK  180  A    between atoms: _441  and  _442
REMARK  181  A    between atoms: _447  and  _449
REMARK  182  A    between atoms: _449  and  _450
REMARK  183  A    between atoms: _449  and  _452
REMARK  184  A    between atoms: _452  and  _453
REMARK  185  A    between atoms: _456  and  _458
REMARK  186  A    between atoms: _458  and  _459
REMARK  187  A    between atoms: _462  and  _464
REMARK  188  A    between atoms: _464  and  _465
REMARK  189  A    between atoms: _464  and  _467
REMARK  190  A    between atoms: _467  and  _468
REMARK  191  A    between atoms: _468  and  _469
REMARK  192  A    between atoms: _471  and  _473
REMARK  193  A    between atoms: _473  and  _474
REMARK  194  A    between atoms: _473  and  _476
REMARK  195  A    between atoms: _476  and  _477
REMARK  196  A    between atoms: _482  and  _484
REMARK  197  A    between atoms: _484  and  _485
REMARK  198  A    between atoms: _484  and  _487
REMARK  199  A    between atoms: _487  and  _488
REMARK  200  A    between atoms: _498  and  _500
REMARK  201  A    between atoms: _500  and  _501
REMARK  202  A    between atoms: _500  and  _503
REMARK  203  A    between atoms: _506  and  _508
REMARK  204  A    between atoms: _508  and  _509
REMARK  205  A    between atoms: _508  and  _511
REMARK  206  A    between atoms: _511  and  _512
REMARK  207  A    between atoms: _512  and  _513
REMARK  208  A    between atoms: _513  and  _514
REMARK  209  A    between atoms: _514  and  _515
REMARK  210  A    between atoms: _519  and  _521
REMARK  211  A    between atoms: _521  and  _522
REMARK  212  A    between atoms: _521  and  _524
REMARK  213  A    between atoms: _524  and  _525
REMARK  214  A    between atoms: _525  and  _526
REMARK  215  A    between atoms: _529  and  _531
REMARK  216  A    between atoms: _531  and  _532
REMARK  217  A    between atoms: _531  and  _534
REMARK  218  A    between atoms: _534  and  _535
REMARK  219  A    between atoms: _538  and  _540
REMARK  220  A    between atoms: _540  and  _541
REMARK  221  A    between atoms: _540  and  _543
REMARK  222  A    between atoms: _543  and  _544
REMARK  223  A    between atoms: _544  and  _545
REMARK  224  A    between atoms: _545  and  _546
REMARK  225  A    between atoms: _555  and  _557
REMARK  226  A    between atoms: _557  and  _558
REMARK  227  A    between atoms: _557  and  _560
REMARK  228  A    between atoms: _560  and  _561
REMARK  229  A    between atoms: _564  and  _566
REMARK  230  A    between atoms: _566  and  _567
REMARK  231  A    between atoms: _566  and  _569
REMARK  232  A    between atoms: _569  and  _570
REMARK  233  A    between atoms: _575  and  _577
REMARK  234  A    between atoms: _577  and  _578
REMARK  235  A    between atoms: _577  and  _580
REMARK  236  A    between atoms: _580  and  _581
REMARK  237  A    between atoms: _581  and  _582
REMARK  238  A    between atoms: _582  and  _583
REMARK  239  A    between atoms: _592  and  _594
REMARK  240  A    between atoms: _594  and  _595
REMARK  241  A    between atoms: _594  and  _597
REMARK  242  A    between atoms: _597  and  _598
REMARK  243  A    between atoms: _598  and  _599
REMARK  244  A    between atoms: _601  and  _603
REMARK  245  A    between atoms: _603  and  _604
REMARK  246  A    between atoms: _603  and  _606
REMARK  247  A    between atoms: _606  and  _607
REMARK  248  A    between atoms: _607  and  _608
REMARK  249  A    between atoms: _610  and  _612
REMARK  250  A    between atoms: _612  and  _613
REMARK  251  A    between atoms: _612  and  _615
REMARK  252  A    between atoms: _615  and  _616
REMARK  253  A    between atoms: _616  and  _617
REMARK  254  A    between atoms: _617  and  _618
REMARK  255  A    between atoms: _618  and  _619
REMARK  256  A    between atoms: _623  and  _625
REMARK  257  A    between atoms: _625  and  _626
REMARK  258  A    between atoms: _625  and  _628
REMARK  259  A    between atoms: _628  and  _629
REMARK                            x       y       z     vdW  Elec       q    Type
REMARK                         _______ _______ _______ _____ _____    ______ ____
ROOT
ATOM      1  CA  LYS A   1      69.377  11.146  29.885  0.00  0.00    +0.145 C 
ENDROOT
BRANCH   1   2
ATOM      2  C   LYS A   1      68.592  12.436  30.170  0.00  0.00    +0.238 C 
ATOM      3  N   THR A   2      68.377  12.738  31.456  0.00  0.00    -0.296 N 
ATOM      4  H   THR A   2      68.740  12.093  32.187  0.00  0.00    +0.150 HD
ATOM      5  O   LYS A   1      68.206  13.143  29.230  0.00  0.00    -0.274 OA
BRANCH   3   6
ATOM      6  CA  THR A   2      67.646  13.947  31.880  0.00  0.00    +0.164 C 
BRANCH   6   7
ATOM      7  C   THR A   2      68.296  14.782  32.982  0.00  0.00    +0.229 C 
ATOM      8  O   THR A   2      67.849  15.892  33.257  0.00  0.00    -0.286 OA
ENDBRANCH   6   7
BRANCH   6   9
ATOM      9  CB  THR A   2      66.245  13.600  32.445  0.00  0.00    +0.136 C 
ATOM     10  CG2 THR A   2      65.376  12.994  31.391  0.00  0.00    +0.034 C 
BRANCH   9  11
ATOM     11  OG1 THR A   2      66.388  12.708  33.561  0.00  0.00    -0.382 OA
ATOM     12  HG1 THR A   2      65.493  12.487  33.922  0.00  0.00    +0.210 HD
ENDBRANCH   9  11
ENDBRANCH   6   9
ENDBRANCH   3   6
ENDBRANCH   1   2
BRANCH   1  13
ATOM     13  N   LYS A   1      70.497  11.065  30.813  0.00  0.00    -0.238 NA
ATOM     14  H   LYS A   1      70.631  10.207  31.385  0.00  0.00    +0.142 HD
ENDBRANCH   1  13
BRANCH   1  15
ATOM     15  CB  LYS A   1      68.450   9.927  30.036  0.00  0.00    +0.026 C 
BRANCH  15  16
ATOM     16  CG  LYS A   1      67.180  10.001  29.152  0.00  0.00    -0.000 C 
BRANCH  16  17
ATOM     17  CD  LYS A   1      66.261   8.784  29.355  0.00  0.00    -0.024 C 
BRANCH  17  18
ATOM     18  CE  LYS A   1      64.812   9.027  28.861  0.00  0.00    -0.086 C 
BRANCH  18  19
ATOM     19  NZ  LYS A   1      64.690   9.213  27.387  0.00  0.00    +0.380 N 
ATOM     20  HZ1 LYS A   1      63.692   9.370  27.140  0.00  0.00    -0.089 HD
ATOM     21  HZ2 LYS A   1      65.254  10.036  27.095  0.00  0.00    -0.089 HD
ATOM     22  HZ3 LYS A   1      65.039   8.362  26.901  0.00  0.00    -0.089 HD
ENDBRANCH  18  19
ENDBRANCH  17  18
ENDBRANCH  16  17
ENDBRANCH  15  16
ENDBRANCH   1  15
TORSDOF 11
REMARK  Name = ../refined-set-2016/2pq9/2pq9_pocket.pdb
REMARK  259 active torsions:
REMARK  status: ('A' for Active; 'I' for Inactive)
REMARK    1  A    between atoms: _1  and  _3
REMARK    2  A    between atoms: _3  and  _4
REMARK    3  A    between atoms: _3  and  _6
REMARK    4  A    between atoms: _6  and  _7
REMARK    5  A    between atoms: _9  and  _11
REMARK    6  A    between atoms: _11  and  _12
REMARK    7  A    between atoms: _11  and  _14
REMARK    8  A    between atoms: _14  and  _15
REMARK    9  A    between atoms: _15  and  _16
REMARK   10  A    between atoms: _16  and  _17
REMARK   11  A    between atoms: _17  and  _18
REMARK   12  A    between atoms: _22  and  _24
REMARK   13  A    between atoms: _24  and  _25
REMARK   14  A    between atoms: _24  and  _27
REMARK   15  A    between atoms: _27  and  _28
REMARK   16  A    between atoms: _30  and  _32
REMARK   17  A    between atoms: _32  and  _33
REMARK   18  A    between atoms: _32  and  _35
REMARK   19  A    between atoms: _38  and  _40
REMARK   20  A    between atoms: _40  and  _41
REMARK   21  A    between atoms: _40  and  _43
REMARK   22  A    between atoms: _43  and  _44
REMARK   23  A    between atoms: _46  and  _48
REMARK   24  A    between atoms: _48  and  _49
REMARK   25  A    between atoms: _48  and  _51
REMARK   26  A    between atoms: _51  and  _52
REMARK   27  A    between atoms: _57  and  _59
REMARK   28  A    between atoms: _59  and  _60
REMARK   29  A    between atoms: _59  and  _62
REMARK   30  A    between atoms: _62  and  _63
REMARK   31  A    between atoms: _63  and  _64
REMARK   32  A    between atoms: _64  and  _65
REMARK   33  A    between atoms: _74  and  _76
REMARK   34  A    between atoms: _76  and  _77
REMARK   35  A    between atoms: _76  and  _79
REMARK   36  A    between atoms: _79  and  _80
REMARK   37  A    between atoms: _83  and  _85
REMARK   38  A    between atoms: _85  and  _86
REMARK   39  A    between atoms: _85  and  _88
REMARK   40  A    between atoms: _88  and  _89
REMARK   41  A    between atoms: _92  and  _94
REMARK   42  A    between atoms: _94  and  _95
REMARK   43  A    between atoms: _97  and  _99
REMARK   44  A    between atoms: _99  and  _100
REMARK   45  A    between atoms: _99  and  _102
REMARK   46  A    between atoms: _102  and  _103
REMARK   47  A    between atoms: _108  and  _110
REMARK   48  A    between atoms: _110  and  _111
REMARK   49  A    between atoms: _114  and  _116
REMARK   50  A    between atoms: _116  and  _117
REMARK   51  A    between atoms: _119  and  _121
REMARK   52  A    between atoms: _121  and  _122
REMARK   53  A    between atoms: _121  and  _124
REMARK   54  A    between atoms: _124  and  _125
REMARK   55  A    between atoms: _128  and  _130
REMARK   56  A    between atoms: _130  and  _131
REMARK   57  A    between atoms: _134  and  _136
REMARK   58  A    between atoms: _136  and  _137
REMARK   59  A    between atoms: _136  and  _139
REMARK   60  A    between atoms: _139  and  _140
REMARK   61  A    between atoms: _140  and  _141
REMARK   62  A    between atoms: _143  and  _145
REMARK   63  A    between atoms: _145  and  _146
REMARK   64  A    between atoms: _145  and  _148
REMARK   65  A    between atoms: _148  and  _149
REMARK   66  A    between atoms: _149  and  _150
REMARK   67  A    between atoms: _150  and  _151
REMARK   68  A    between atoms: _161  and  _162
REMARK   69  A    between atoms: _167  and  _169
REMARK   70  A    between atoms: _169  and  _170
REMARK   71  A    between atoms: _169  and  _172
REMARK   72  A    between atoms: _172  and  _173
REMARK   73  A    between atoms: _173  and  _174
REMARK   74  A    between atoms: _174  and  _175
REMARK   75  A    between atoms: _184  and  _186
REMARK   76  A    between atoms: _186  and  _187
REMARK   77  A    between atoms: _186  and  _189
REMARK   78  A    between atoms: _189  and  _190
REMARK   79  A    between atoms: _190  and  _191
REMARK   80  A    between atoms: _193  and  _195
REMARK   81  A    between atoms: _195  and  _196
REMARK   82  A    between atoms: _195  and  _198
REMARK   83  A    between atoms: _198  and  _199
REMARK   84  A    between atoms: _199  and  _200
REMARK   85  A    between atoms: _200  and  _201
REMARK   86  A    between atoms: _211  and  _212
REMARK   87  A    between atoms: _217  and  _219
REMARK   88  A    between atoms: _219  and  _220
REMARK   89  A    between atoms: _222  and  _224
REMARK   90  A    between atoms: _224  and  _225
REMARK   91  A    between atoms: _224  and  _227
REMARK   92  A    between atoms: _230  and  _232
REMARK   93  A    between atoms: _232  and  _233
REMARK   94  A    between atoms: _232  and  _235
REMARK   95  A    between atoms: _235  and  _236
REMARK   96  A    between atoms: _238  and  _240
REMARK   97  A    between atoms: _240  and  _241
REMARK   98  A    between atoms: _240  and  _243
REMARK   99  A    between atoms: _243  and  _244
REMARK  100  A    between atoms: _246  and  _248
REMARK  101  A    between atoms: _248  and  _249
REMARK  102  A    between atoms: _248  and  _251
REMARK  103  A    between atoms: _251  and  _252
REMARK  104  A    between atoms: _252  and  _253
REMARK  105  A    between atoms: _258  and  _260
REMARK  106  A    between atoms: _260  and  _261
REMARK  107  A    between atoms: _260  and  _263
REMARK  108  A    between atoms: _263  and  _264
REMARK  109  A    between atoms: _270  and  _272
REMARK  110  A    between atoms: _272  and  _273
REMARK  111  A    between atoms: _272  and  _275
REMARK  112  A    between atoms: _275  and  _276
REMARK  113  A    between atoms: _279  and  _281
REMARK  114  A    between atoms: _281  and  _282
REMARK  115  A    between atoms: _281  and  _284
REMARK  116  A    between atoms: _284  and  _285
REMARK  117  A    between atoms: _288  and  _290
REMARK  118  A    between atoms: _290  and  _291
REMARK  119  A    between atoms: _294  and  _296
REMARK  120  A    between atoms: _296  and  _297
REMARK  121  A    between atoms: _296  and  _299
REMARK  122  A    between atoms: _299  and  _300
REMARK  123  A    between atoms: _303  and  _305
REMARK  124  A    between atoms: _305  and  _306
REMARK  125  A    between atoms: _305  and  _308
REMARK  126  A    between atoms: _311  and  _313
REMARK  127  A    between atoms: _313  and  _314
REMARK  128  A    between atoms: _313  and  _316
REMARK  129  A    between atoms: _316  and  _317
REMARK  130  A    between atoms: _319  and  _321
REMARK  131  A    between atoms: _321  and  _322
REMARK  132  A    between atoms: _321  and  _324
REMARK  133  A    between atoms: _324  and  _325
REMARK  134  A    between atoms: _325  and  _326
REMARK  135  A    between atoms: _326  and  _327
REMARK  136  A    between atoms: _327  and  _328
REMARK  137  A    between atoms: _333  and  _334
REMARK  138  A    between atoms: _339  and  _341
REMARK  139  A    between atoms: _341  and  _342
REMARK  140  A    between atoms: _341  and  _344
REMARK  141  A    between atoms: _344  and  _345
REMARK  142  A    between atoms: _350  and  _351
REMARK  143  A    between atoms: _353  and  _355
REMARK  144  A    between atoms: _355  and  _356
REMARK  145  A    between atoms: _355  and  _358
REMARK  146  A    between atoms: _358  and  _359
REMARK  147  A    between atoms: _362  and  _364
REMARK  148  A    between atoms: _364  and  _365
REMARK  149  A    between atoms: _364  and  _367
REMARK  150  A    between atoms: _367  and  _368
REMARK  151  A    between atoms: _371  and  _373
REMARK  152  A    between atoms: _373  and  _374
REMARK  153  A    between atoms: _373  and  _376
REMARK  154  A    between atoms: _376  and  _377
REMARK  155  A    between atoms: _380  and  _382
REMARK  156  A    between atoms: _382  and  _383
REMARK  157  A    between atoms: _382  and  _385
REMARK  158  A    between atoms: _385  and  _386
REMARK  159  A    between atoms: _389  and  _391
REMARK  160  A    between atoms: _391  and  _392
REMARK  161  A    between atoms: _391  and  _394
REMARK  162  A    between atoms: _394  and  _395
REMARK  163  A    between atoms: _397  and  _399
REMARK  164  A    between atoms: _399  and  _400
REMARK  165  A    between atoms: _399  and  _402
REMARK  166  A    between atoms: _402  and  _403
REMARK  167  A    between atoms: _408  and  _409
REMARK  168  A    between atoms: _411  and  _413
REMARK  169  A    between atoms: _413  and  _414
REMARK  170  A    between atoms: _413  and  _416
REMARK  171  A    between atoms: _416  and  _417
REMARK  172  A    between atoms: _420  and  _422
REMARK  173  A    between atoms: _422  and  _423
REMARK  174  A    between atoms: _422  and  _425
REMARK  175  A    between atoms: _425  and  _426
REMARK  176  A    between atoms: _431  and  _433
REMARK  177  A    between atoms: _433  and  _434
REMARK  178  A    between atoms: _433  and  _436
REMARK  179  A    between atoms: _436  and  _437
REMARK  180  A    between atoms: _441  and  _442
REMARK  181  A    between atoms: _447  and  _449
REMARK  182  A    between atoms: _449  and  _450
REMARK  183  A    between atoms: _449  and  _452
REMARK  184  A    between atoms: _452  and  _453
REMARK  185  A    between atoms: _456  and  _458
REMARK  186  A    between atoms: _458  and  _459
REMARK  187  A    between atoms: _462  and  _464
REMARK  188  A    between atoms: _464  and  _465
REMARK  189  A    between atoms: _464  and  _467
REMARK  190  A    between atoms: _467  and  _468
REMARK  191  A    between atoms: _468  and  _469
REMARK  192  A    between atoms: _471  and  _473
REMARK  193  A    between atoms: _473  and  _474
REMARK  194  A    between atoms: _473  and  _476
REMARK  195  A    between atoms: _476  and  _477
REMARK  196  A    between atoms: _482  and  _484
REMARK  197  A    between atoms: _484  and  _485
REMARK  198  A    between atoms: _484  and  _487
REMARK  199  A    between atoms: _487  and  _488
REMARK  200  A    between atoms: _498  and  _500
REMARK  201  A    between atoms: _500  and  _501
REMARK  202  A    between atoms: _500  and  _503
REMARK  203  A    between atoms: _506  and  _508
REMARK  204  A    between atoms: _508  and  _509
REMARK  205  A    between atoms: _508  and  _511
REMARK  206  A    between atoms: _511  and  _512
REMARK  207  A    between atoms: _512  and  _513
REMARK  208  A    between atoms: _513  and  _514
REMARK  209  A    between atoms: _514  and  _515
REMARK  210  A    between atoms: _519  and  _521
REMARK  211  A    between atoms: _521  and  _522
REMARK  212  A    between atoms: _521  and  _524
REMARK  213  A    between atoms: _524  and  _525
REMARK  214  A    between atoms: _525  and  _526
REMARK  215  A    between atoms: _529  and  _531
REMARK  216  A    between atoms: _531  and  _532
REMARK  217  A    between atoms: _531  and  _534
REMARK  218  A    between atoms: _534  and  _535
REMARK  219  A    between atoms: _538  and  _540
REMARK  220  A    between atoms: _540  and  _541
REMARK  221  A    between atoms: _540  and  _543
REMARK  222  A    between atoms: _543  and  _544
REMARK  223  A    between atoms: _544  and  _545
REMARK  224  A    between atoms: _545  and  _546
REMARK  225  A    between atoms: _555  and  _557
REMARK  226  A    between atoms: _557  and  _558
REMARK  227  A    between atoms: _557  and  _560
REMARK  228  A    between atoms: _560  and  _561
REMARK  229  A    between atoms: _564  and  _566
REMARK  230  A    between atoms: _566  and  _567
REMARK  231  A    between atoms: _566  and  _569
REMARK  232  A    between atoms: _569  and  _570
REMARK  233  A    between atoms: _575  and  _577
REMARK  234  A    between atoms: _577  and  _578
REMARK  235  A    between atoms: _577  and  _580
REMARK  236  A    between atoms: _580  and  _581
REMARK  237  A    between atoms: _581  and  _582
REMARK  238  A    between atoms: _582  and  _583
REMARK  239  A    between atoms: _592  and  _594
REMARK  240  A    between atoms: _594  and  _595
REMARK  241  A    between atoms: _594  and  _597
REMARK  242  A    between atoms: _597  and  _598
REMARK  243  A    between atoms: _598  and  _599
REMARK  244  A    between atoms: _601  and  _603
REMARK  245  A    between atoms: _603  and  _604
REMARK  246  A    between atoms: _603  and  _606
REMARK  247  A    between atoms: _606  and  _607
REMARK  248  A    between atoms: _607  and  _608
REMARK  249  A    between atoms: _610  and  _612
REMARK  250  A    between atoms: _612  and  _613
REMARK  251  A    between atoms: _612  and  _615
REMARK  252  A    between atoms: _615  and  _616
REMARK  253  A    between atoms: _616  and  _617
REMARK  254  A    between atoms: _617  and  _618
REMARK  255  A    between atoms: _618  and  _619
REMARK  256  A    between atoms: _623  and  _625
REMARK  257  A    between atoms: _625  and  _626
REMARK  258  A    between atoms: _625  and  _628
REMARK  259  A    between atoms: _628  and  _629
REMARK                            x       y       z     vdW  Elec       q    Type
REMARK                         _______ _______ _______ _____ _____    ______ ____
ROOT
ATOM      1  O   HOH     1      61.069   8.315  39.240  0.00  0.00    +0.000 OA
ENDROOT
TORSDOF 0
REMARK  Name = ../refined-set-2016/2pq9/2pq9_pocket.pdb
REMARK  259 active torsions:
REMARK  status: ('A' for Active; 'I' for Inactive)
REMARK    1  A    between atoms: _1  and  _3
REMARK    2  A    between atoms: _3  and  _4
REMARK    3  A    between atoms: _3  and  _6
REMARK    4  A    between atoms: _6  and  _7
REMARK    5  A    between atoms: _9  and  _11
REMARK    6  A    between atoms: _11  and  _12
REMARK    7  A    between atoms: _11  and  _14
REMARK    8  A    between atoms: _14  and  _15
REMARK    9  A    between atoms: _15  and  _16
REMARK   10  A    between atoms: _16  and  _17
REMARK   11  A    between atoms: _17  and  _18
REMARK   12  A    between atoms: _22  and  _24
REMARK   13  A    between atoms: _24  and  _25
REMARK   14  A    between atoms: _24  and  _27
REMARK   15  A    between atoms: _27  and  _28
REMARK   16  A    between atoms: _30  and  _32
REMARK   17  A    between atoms: _32  and  _33
REMARK   18  A    between atoms: _32  and  _35
REMARK   19  A    between atoms: _38  and  _40
REMARK   20  A    between atoms: _40  and  _41
REMARK   21  A    between atoms: _40  and  _43
REMARK   22  A    between atoms: _43  and  _44
REMARK   23  A    between atoms: _46  and  _48
REMARK   24  A    between atoms: _48  and  _49
REMARK   25  A    between atoms: _48  and  _51
REMARK   26  A    between atoms: _51  and  _52
REMARK   27  A    between atoms: _57  and  _59
REMARK   28  A    between atoms: _59  and  _60
REMARK   29  A    between atoms: _59  and  _62
REMARK   30  A    between atoms: _62  and  _63
REMARK   31  A    between atoms: _63  and  _64
REMARK   32  A    between atoms: _64  and  _65
REMARK   33  A    between atoms: _74  and  _76
REMARK   34  A    between atoms: _76  and  _77
REMARK   35  A    between atoms: _76  and  _79
REMARK   36  A    between atoms: _79  and  _80
REMARK   37  A    between atoms: _83  and  _85
REMARK   38  A    between atoms: _85  and  _86
REMARK   39  A    between atoms: _85  and  _88
REMARK   40  A    between atoms: _88  and  _89
REMARK   41  A    between atoms: _92  and  _94
REMARK   42  A    between atoms: _94  and  _95
REMARK   43  A    between atoms: _97  and  _99
REMARK   44  A    between atoms: _99  and  _100
REMARK   45  A    between atoms: _99  and  _102
REMARK   46  A    between atoms: _102  and  _103
REMARK   47  A    between atoms: _108  and  _110
REMARK   48  A    between atoms: _110  and  _111
REMARK   49  A    between atoms: _114  and  _116
REMARK   50  A    between atoms: _116  and  _117
REMARK   51  A    between atoms: _119  and  _121
REMARK   52  A    between atoms: _121  and  _122
REMARK   53  A    between atoms: _121  and  _124
REMARK   54  A    between atoms: _124  and  _125
REMARK   55  A    between atoms: _128  and  _130
REMARK   56  A    between atoms: _130  and  _131
REMARK   57  A    between atoms: _134  and  _136
REMARK   58  A    between atoms: _136  and  _137
REMARK   59  A    between atoms: _136  and  _139
REMARK   60  A    between atoms: _139  and  _140
REMARK   61  A    between atoms: _140  and  _141
REMARK   62  A    between atoms: _143  and  _145
REMARK   63  A    between atoms: _145  and  _146
REMARK   64  A    between atoms: _145  and  _148
REMARK   65  A    between atoms: _148  and  _149
REMARK   66  A    between atoms: _149  and  _150
REMARK   67  A    between atoms: _150  and  _151
REMARK   68  A    between atoms: _161  and  _162
REMARK   69  A    between atoms: _167  and  _169
REMARK   70  A    between atoms: _169  and  _170
REMARK   71  A    between atoms: _169  and  _172
REMARK   72  A    between atoms: _172  and  _173
REMARK   73  A    between atoms: _173  and  _174
REMARK   74  A    between atoms: _174  and  _175
REMARK   75  A    between atoms: _184  and  _186
REMARK   76  A    between atoms: _186  and  _187
REMARK   77  A    between atoms: _186  and  _189
REMARK   78  A    between atoms: _189  and  _190
REMARK   79  A    between atoms: _190  and  _191
REMARK   80  A    between atoms: _193  and  _195
REMARK   81  A    between atoms: _195  and  _196
REMARK   82  A    between atoms: _195  and  _198
REMARK   83  A    between atoms: _198  and  _199
REMARK   84  A    between atoms: _199  and  _200
REMARK   85  A    between atoms: _200  and  _201
REMARK   86  A    between atoms: _211  and  _212
REMARK   87  A    between atoms: _217  and  _219
REMARK   88  A    between atoms: _219  and  _220
REMARK   89  A    between atoms: _222  and  _224
REMARK   90  A    between atoms: _224  and  _225
REMARK   91  A    between atoms: _224  and  _227
REMARK   92  A    between atoms: _230  and  _232
REMARK   93  A    between atoms: _232  and  _233
REMARK   94  A    between atoms: _232  and  _235
REMARK   95  A    between atoms: _235  and  _236
REMARK   96  A    between atoms: _238  and  _240
REMARK   97  A    between atoms: _240  and  _241
REMARK   98  A    between atoms: _240  and  _243
REMARK   99  A    between atoms: _243  and  _244
REMARK  100  A    between atoms: _246  and  _248
REMARK  101  A    between atoms: _248  and  _249
REMARK  102  A    between atoms: _248  and  _251
REMARK  103  A    between atoms: _251  and  _252
REMARK  104  A    between atoms: _252  and  _253
REMARK  105  A    between atoms: _258  and  _260
REMARK  106  A    between atoms: _260  and  _261
REMARK  107  A    between atoms: _260  and  _263
REMARK  108  A    between atoms: _263  and  _264
REMARK  109  A    between atoms: _270  and  _272
REMARK  110  A    between atoms: _272  and  _273
REMARK  111  A    between atoms: _272  and  _275
REMARK  112  A    between atoms: _275  and  _276
REMARK  113  A    between atoms: _279  and  _281
REMARK  114  A    between atoms: _281  and  _282
REMARK  115  A    between atoms: _281  and  _284
REMARK  116  A    between atoms: _284  and  _285
REMARK  117  A    between atoms: _288  and  _290
REMARK  118  A    between atoms: _290  and  _291
REMARK  119  A    between atoms: _294  and  _296
REMARK  120  A    between atoms: _296  and  _297
REMARK  121  A    between atoms: _296  and  _299
REMARK  122  A    between atoms: _299  and  _300
REMARK  123  A    between atoms: _303  and  _305
REMARK  124  A    between atoms: _305  and  _306
REMARK  125  A    between atoms: _305  and  _308
REMARK  126  A    between atoms: _311  and  _313
REMARK  127  A    between atoms: _313  and  _314
REMARK  128  A    between atoms: _313  and  _316
REMARK  129  A    between atoms: _316  and  _317
REMARK  130  A    between atoms: _319  and  _321
REMARK  131  A    between atoms: _321  and  _322
REMARK  132  A    between atoms: _321  and  _324
REMARK  133  A    between atoms: _324  and  _325
REMARK  134  A    between atoms: _325  and  _326
REMARK  135  A    between atoms: _326  and  _327
REMARK  136  A    between atoms: _327  and  _328
REMARK  137  A    between atoms: _333  and  _334
REMARK  138  A    between atoms: _339  and  _341
REMARK  139  A    between atoms: _341  and  _342
REMARK  140  A    between atoms: _341  and  _344
REMARK  141  A    between atoms: _344  and  _345
REMARK  142  A    between atoms: _350  and  _351
REMARK  143  A    between atoms: _353  and  _355
REMARK  144  A    between atoms: _355  and  _356
REMARK  145  A    between atoms: _355  and  _358
REMARK  146  A    between atoms: _358  and  _359
REMARK  147  A    between atoms: _362  and  _364
REMARK  148  A    between atoms: _364  and  _365
REMARK  149  A    between atoms: _364  and  _367
REMARK  150  A    between atoms: _367  and  _368
REMARK  151  A    between atoms: _371  and  _373
REMARK  152  A    between atoms: _373  and  _374
REMARK  153  A    between atoms: _373  and  _376
REMARK  154  A    between atoms: _376  and  _377
REMARK  155  A    between atoms: _380  and  _382
REMARK  156  A    between atoms: _382  and  _383
REMARK  157  A    between atoms: _382  and  _385
REMARK  158  A    between atoms: _385  and  _386
REMARK  159  A    between atoms: _389  and  _391
REMARK  160  A    between atoms: _391  and  _392
REMARK  161  A    between atoms: _391  and  _394
REMARK  162  A    between atoms: _394  and  _395
REMARK  163  A    between atoms: _397  and  _399
REMARK  164  A    between atoms: _399  and  _400
REMARK  165  A    between atoms: _399  and  _402
REMARK  166  A    between atoms: _402  and  _403
REMARK  167  A    between atoms: _408  and  _409
REMARK  168  A    between atoms: _411  and  _413
REMARK  169  A    between atoms: _413  and  _414
REMARK  170  A    between atoms: _413  and  _416
REMARK  171  A    between atoms: _416  and  _417
REMARK  172  A    between atoms: _420  and  _422
REMARK  173  A    between atoms: _422  and  _423
REMARK  174  A    between atoms: _422  and  _425
REMARK  175  A    between atoms: _425  and  _426
REMARK  176  A    between atoms: _431  and  _433
REMARK  177  A    between atoms: _433  and  _434
REMARK  178  A    between atoms: _433  and  _436
REMARK  179  A    between atoms: _436  and  _437
REMARK  180  A    between atoms: _441  and  _442
REMARK  181  A    between atoms: _447  and  _449
REMARK  182  A    between atoms: _449  and  _450
REMARK  183  A    between atoms: _449  and  _452
REMARK  184  A    between atoms: _452  and  _453
REMARK  185  A    between atoms: _456  and  _458
REMARK  186  A    between atoms: _458  and  _459
REMARK  187  A    between atoms: _462  and  _464
REMARK  188  A    between atoms: _464  and  _465
REMARK  189  A    between atoms: _464  and  _467
REMARK  190  A    between atoms: _467  and  _468
REMARK  191  A    between atoms: _468  and  _469
REMARK  192  A    between atoms: _471  and  _473
REMARK  193  A    between atoms: _473  and  _474
REMARK  194  A    between atoms: _473  and  _476
REMARK  195  A    between atoms: _476  and  _477
REMARK  196  A    between atoms: _482  and  _484
REMARK  197  A    between atoms: _484  and  _485
REMARK  198  A    between atoms: _484  and  _487
REMARK  199  A    between atoms: _487  and  _488
REMARK  200  A    between atoms: _498  and  _500
REMARK  201  A    between atoms: _500  and  _501
REMARK  202  A    between atoms: _500  and  _503
REMARK  203  A    between atoms: _506  and  _508
REMARK  204  A    between atoms: _508  and  _509
REMARK  205  A    between atoms: _508  and  _511
REMARK  206  A    between atoms: _511  and  _512
REMARK  207  A    between atoms: _512  and  _513
REMARK  208  A    between atoms: _513  and  _514
REMARK  209  A    between atoms: _514  and  _515
REMARK  210  A    between atoms: _519  and  _521
REMARK  211  A    between atoms: _521  and  _522
REMARK  212  A    between atoms: _521  and  _524
REMARK  213  A    between atoms: _524  and  _525
REMARK  214  A    between atoms: _525  and  _526
REMARK  215  A    between atoms: _529  and  _531
REMARK  216  A    between atoms: _531  and  _532
REMARK  217  A    between atoms: _531  and  _534
REMARK  218  A    between atoms: _534  and  _535
REMARK  219  A    between atoms: _538  and  _540
REMARK  220  A    between atoms: _540  and  _541
REMARK  221  A    between atoms: _540  and  _543
REMARK  222  A    between atoms: _543  and  _544
REMARK  223  A    between atoms: _544  and  _545
REMARK  224  A    between atoms: _545  and  _546
REMARK  225  A    between atoms: _555  and  _557
REMARK  226  A    between atoms: _557  and  _558
REMARK  227  A    between atoms: _557  and  _560
REMARK  228  A    between atoms: _560  and  _561
REMARK  229  A    between atoms: _564  and  _566
REMARK  230  A    between atoms: _566  and  _567
REMARK  231  A    between atoms: _566  and  _569
REMARK  232  A    between atoms: _569  and  _570
REMARK  233  A    between atoms: _575  and  _577
REMARK  234  A    between atoms: _577  and  _578
REMARK  235  A    between atoms: _577  and  _580
REMARK  236  A    between atoms: _580  and  _581
REMARK  237  A    between atoms: _581  and  _582
REMARK  238  A    between atoms: _582  and  _583
REMARK  239  A    between atoms: _592  and  _594
REMARK  240  A    between atoms: _594  and  _595
REMARK  241  A    between atoms: _594  and  _597
REMARK  242  A    between atoms: _597  and  _598
REMARK  243  A    between atoms: _598  and  _599
REMARK  244  A    between atoms: _601  and  _603
REMARK  245  A    between atoms: _603  and  _604
REMARK  246  A    between atoms: _603  and  _606
REMARK  247  A    between atoms: _606  and  _607
REMARK  248  A    between atoms: _607  and  _608
REMARK  249  A    between atoms: _610  and  _612
REMARK  250  A    between atoms: _612  and  _613
REMARK  251  A    between atoms: _612  and  _615
REMARK  252  A    between atoms: _615  and  _616
REMARK  253  A    between atoms: _616  and  _617
REMARK  254  A    between atoms: _617  and  _618
REMARK  255  A    between atoms: _618  and  _619
REMARK  256  A    between atoms: _623  and  _625
REMARK  257  A    between atoms: _625  and  _626
REMARK  258  A    between atoms: _625  and  _628
REMARK  259  A    between atoms: _628  and  _629
REMARK                            x       y       z     vdW  Elec       q    Type
REMARK                         _______ _______ _______ _____ _____    ______ ____
ROOT
ATOM      1  O   HOH     1      58.475  12.486  32.882  0.00  0.00    +0.000 OA
ENDROOT
TORSDOF 0
REMARK  Name = ../refined-set-2016/2pq9/2pq9_pocket.pdb
REMARK  259 active torsions:
REMARK  status: ('A' for Active; 'I' for Inactive)
REMARK    1  A    between atoms: _1  and  _3
REMARK    2  A    between atoms: _3  and  _4
REMARK    3  A    between atoms: _3  and  _6
REMARK    4  A    between atoms: _6  and  _7
REMARK    5  A    between atoms: _9  and  _11
REMARK    6  A    between atoms: _11  and  _12
REMARK    7  A    between atoms: _11  and  _14
REMARK    8  A    between atoms: _14  and  _15
REMARK    9  A    between atoms: _15  and  _16
REMARK   10  A    between atoms: _16  and  _17
REMARK   11  A    between atoms: _17  and  _18
REMARK   12  A    between atoms: _22  and  _24
REMARK   13  A    between atoms: _24  and  _25
REMARK   14  A    between atoms: _24  and  _27
REMARK   15  A    between atoms: _27  and  _28
REMARK   16  A    between atoms: _30  and  _32
REMARK   17  A    between atoms: _32  and  _33
REMARK   18  A    between atoms: _32  and  _35
REMARK   19  A    between atoms: _38  and  _40
REMARK   20  A    between atoms: _40  and  _41
REMARK   21  A    between atoms: _40  and  _43
REMARK   22  A    between atoms: _43  and  _44
REMARK   23  A    between atoms: _46  and  _48
REMARK   24  A    between atoms: _48  and  _49
REMARK   25  A    between atoms: _48  and  _51
REMARK   26  A    between atoms: _51  and  _52
REMARK   27  A    between atoms: _57  and  _59
REMARK   28  A    between atoms: _59  and  _60
REMARK   29  A    between atoms: _59  and  _62
REMARK   30  A    between atoms: _62  and  _63
REMARK   31  A    between atoms: _63  and  _64
REMARK   32  A    between atoms: _64  and  _65
REMARK   33  A    between atoms: _74  and  _76
REMARK   34  A    between atoms: _76  and  _77
REMARK   35  A    between atoms: _76  and  _79
REMARK   36  A    between atoms: _79  and  _80
REMARK   37  A    between atoms: _83  and  _85
REMARK   38  A    between atoms: _85  and  _86
REMARK   39  A    between atoms: _85  and  _88
REMARK   40  A    between atoms: _88  and  _89
REMARK   41  A    between atoms: _92  and  _94
REMARK   42  A    between atoms: _94  and  _95
REMARK   43  A    between atoms: _97  and  _99
REMARK   44  A    between atoms: _99  and  _100
REMARK   45  A    between atoms: _99  and  _102
REMARK   46  A    between atoms: _102  and  _103
REMARK   47  A    between atoms: _108  and  _110
REMARK   48  A    between atoms: _110  and  _111
REMARK   49  A    between atoms: _114  and  _116
REMARK   50  A    between atoms: _116  and  _117
REMARK   51  A    between atoms: _119  and  _121
REMARK   52  A    between atoms: _121  and  _122
REMARK   53  A    between atoms: _121  and  _124
REMARK   54  A    between atoms: _124  and  _125
REMARK   55  A    between atoms: _128  and  _130
REMARK   56  A    between atoms: _130  and  _131
REMARK   57  A    between atoms: _134  and  _136
REMARK   58  A    between atoms: _136  and  _137
REMARK   59  A    between atoms: _136  and  _139
REMARK   60  A    between atoms: _139  and  _140
REMARK   61  A    between atoms: _140  and  _141
REMARK   62  A    between atoms: _143  and  _145
REMARK   63  A    between atoms: _145  and  _146
REMARK   64  A    between atoms: _145  and  _148
REMARK   65  A    between atoms: _148  and  _149
REMARK   66  A    between atoms: _149  and  _150
REMARK   67  A    between atoms: _150  and  _151
REMARK   68  A    between atoms: _161  and  _162
REMARK   69  A    between atoms: _167  and  _169
REMARK   70  A    between atoms: _169  and  _170
REMARK   71  A    between atoms: _169  and  _172
REMARK   72  A    between atoms: _172  and  _173
REMARK   73  A    between atoms: _173  and  _174
REMARK   74  A    between atoms: _174  and  _175
REMARK   75  A    between atoms: _184  and  _186
REMARK   76  A    between atoms: _186  and  _187
REMARK   77  A    between atoms: _186  and  _189
REMARK   78  A    between atoms: _189  and  _190
REMARK   79  A    between atoms: _190  and  _191
REMARK   80  A    between atoms: _193  and  _195
REMARK   81  A    between atoms: _195  and  _196
REMARK   82  A    between atoms: _195  and  _198
REMARK   83  A    between atoms: _198  and  _199
REMARK   84  A    between atoms: _199  and  _200
REMARK   85  A    between atoms: _200  and  _201
REMARK   86  A    between atoms: _211  and  _212
REMARK   87  A    between atoms: _217  and  _219
REMARK   88  A    between atoms: _219  and  _220
REMARK   89  A    between atoms: _222  and  _224
REMARK   90  A    between atoms: _224  and  _225
REMARK   91  A    between atoms: _224  and  _227
REMARK   92  A    between atoms: _230  and  _232
REMARK   93  A    between atoms: _232  and  _233
REMARK   94  A    between atoms: _232  and  _235
REMARK   95  A    between atoms: _235  and  _236
REMARK   96  A    between atoms: _238  and  _240
REMARK   97  A    between atoms: _240  and  _241
REMARK   98  A    between atoms: _240  and  _243
REMARK   99  A    between atoms: _243  and  _244
REMARK  100  A    between atoms: _246  and  _248
REMARK  101  A    between atoms: _248  and  _249
REMARK  102  A    between atoms: _248  and  _251
REMARK  103  A    between atoms: _251  and  _252
REMARK  104  A    between atoms: _252  and  _253
REMARK  105  A    between atoms: _258  and  _260
REMARK  106  A    between atoms: _260  and  _261
REMARK  107  A    between atoms: _260  and  _263
REMARK  108  A    between atoms: _263  and  _264
REMARK  109  A    between atoms: _270  and  _272
REMARK  110  A    between atoms: _272  and  _273
REMARK  111  A    between atoms: _272  and  _275
REMARK  112  A    between atoms: _275  and  _276
REMARK  113  A    between atoms: _279  and  _281
REMARK  114  A    between atoms: _281  and  _282
REMARK  115  A    between atoms: _281  and  _284
REMARK  116  A    between atoms: _284  and  _285
REMARK  117  A    between atoms: _288  and  _290
REMARK  118  A    between atoms: _290  and  _291
REMARK  119  A    between atoms: _294  and  _296
REMARK  120  A    between atoms: _296  and  _297
REMARK  121  A    between atoms: _296  and  _299
REMARK  122  A    between atoms: _299  and  _300
REMARK  123  A    between atoms: _303  and  _305
REMARK  124  A    between atoms: _305  and  _306
REMARK  125  A    between atoms: _305  and  _308
REMARK  126  A    between atoms: _311  and  _313
REMARK  127  A    between atoms: _313  and  _314
REMARK  128  A    between atoms: _313  and  _316
REMARK  129  A    between atoms: _316  and  _317
REMARK  130  A    between atoms: _319  and  _321
REMARK  131  A    between atoms: _321  and  _322
REMARK  132  A    between atoms: _321  and  _324
REMARK  133  A    between atoms: _324  and  _325
REMARK  134  A    between atoms: _325  and  _326
REMARK  135  A    between atoms: _326  and  _327
REMARK  136  A    between atoms: _327  and  _328
REMARK  137  A    between atoms: _333  and  _334
REMARK  138  A    between atoms: _339  and  _341
REMARK  139  A    between atoms: _341  and  _342
REMARK  140  A    between atoms: _341  and  _344
REMARK  141  A    between atoms: _344  and  _345
REMARK  142  A    between atoms: _350  and  _351
REMARK  143  A    between atoms: _353  and  _355
REMARK  144  A    between atoms: _355  and  _356
REMARK  145  A    between atoms: _355  and  _358
REMARK  146  A    between atoms: _358  and  _359
REMARK  147  A    between atoms: _362  and  _364
REMARK  148  A    between atoms: _364  and  _365
REMARK  149  A    between atoms: _364  and  _367
REMARK  150  A    between atoms: _367  and  _368
REMARK  151  A    between atoms: _371  and  _373
REMARK  152  A    between atoms: _373  and  _374
REMARK  153  A    between atoms: _373  and  _376
REMARK  154  A    between atoms: _376  and  _377
REMARK  155  A    between atoms: _380  and  _382
REMARK  156  A    between atoms: _382  and  _383
REMARK  157  A    between atoms: _382  and  _385
REMARK  158  A    between atoms: _385  and  _386
REMARK  159  A    between atoms: _389  and  _391
REMARK  160  A    between atoms: _391  and  _392
REMARK  161  A    between atoms: _391  and  _394
REMARK  162  A    between atoms: _394  and  _395
REMARK  163  A    between atoms: _397  and  _399
REMARK  164  A    between atoms: _399  and  _400
REMARK  165  A    between atoms: _399  and  _402
REMARK  166  A    between atoms: _402  and  _403
REMARK  167  A    between atoms: _408  and  _409
REMARK  168  A    between atoms: _411  and  _413
REMARK  169  A    between atoms: _413  and  _414
REMARK  170  A    between atoms: _413  and  _416
REMARK  171  A    between atoms: _416  and  _417
REMARK  172  A    between atoms: _420  and  _422
REMARK  173  A    between atoms: _422  and  _423
REMARK  174  A    between atoms: _422  and  _425
REMARK  175  A    between atoms: _425  and  _426
REMARK  176  A    between atoms: _431  and  _433
REMARK  177  A    between atoms: _433  and  _434
REMARK  178  A    between atoms: _433  and  _436
REMARK  179  A    between atoms: _436  and  _437
REMARK  180  A    between atoms: _441  and  _442
REMARK  181  A    between atoms: _447  and  _449
REMARK  182  A    between atoms: _449  and  _450
REMARK  183  A    between atoms: _449  and  _452
REMARK  184  A    between atoms: _452  and  _453
REMARK  185  A    between atoms: _456  and  _458
REMARK  186  A    between atoms: _458  and  _459
REMARK  187  A    between atoms: _462  and  _464
REMARK  188  A    between atoms: _464  and  _465
REMARK  189  A    between atoms: _464  and  _467
REMARK  190  A    between atoms: _467  and  _468
REMARK  191  A    between atoms: _468  and  _469
REMARK  192  A    between atoms: _471  and  _473
REMARK  193  A    between atoms: _473  and  _474
REMARK  194  A    between atoms: _473  and  _476
REMARK  195  A    between atoms: _476  and  _477
REMARK  196  A    between atoms: _482  and  _484
REMARK  197  A    between atoms: _484  and  _485
REMARK  198  A    between atoms: _484  and  _487
REMARK  199  A    between atoms: _487  and  _488
REMARK  200  A    between atoms: _498  and  _500
REMARK  201  A    between atoms: _500  and  _501
REMARK  202  A    between atoms: _500  and  _503
REMARK  203  A    between atoms: _506  and  _508
REMARK  204  A    between atoms: _508  and  _509
REMARK  205  A    between atoms: _508  and  _511
REMARK  206  A    between atoms: _511  and  _512
REMARK  207  A    between atoms: _512  and  _513
REMARK  208  A    between atoms: _513  and  _514
REMARK  209  A    between atoms: _514  and  _515
REMARK  210  A    between atoms: _519  and  _521
REMARK  211  A    between atoms: _521  and  _522
REMARK  212  A    between atoms: _521  and  _524
REMARK  213  A    between atoms: _524  and  _525
REMARK  214  A    between atoms: _525  and  _526
REMARK  215  A    between atoms: _529  and  _531
REMARK  216  A    between atoms: _531  and  _532
REMARK  217  A    between atoms: _531  and  _534
REMARK  218  A    between atoms: _534  and  _535
REMARK  219  A    between atoms: _538  and  _540
REMARK  220  A    between atoms: _540  and  _541
REMARK  221  A    between atoms: _540  and  _543
REMARK  222  A    between atoms: _543  and  _544
REMARK  223  A    between atoms: _544  and  _545
REMARK  224  A    between atoms: _545  and  _546
REMARK  225  A    between atoms: _555  and  _557
REMARK  226  A    between atoms: _557  and  _558
REMARK  227  A    between atoms: _557  and  _560
REMARK  228  A    between atoms: _560  and  _561
REMARK  229  A    between atoms: _564  and  _566
REMARK  230  A    between atoms: _566  and  _567
REMARK  231  A    between atoms: _566  and  _569
REMARK  232  A    between atoms: _569  and  _570
REMARK  233  A    between atoms: _575  and  _577
REMARK  234  A    between atoms: _577  and  _578
REMARK  235  A    between atoms: _577  and  _580
REMARK  236  A    between atoms: _580  and  _581
REMARK  237  A    between atoms: _581  and  _582
REMARK  238  A    between atoms: _582  and  _583
REMARK  239  A    between atoms: _592  and  _594
REMARK  240  A    between atoms: _594  and  _595
REMARK  241  A    between atoms: _594  and  _597
REMARK  242  A    between atoms: _597  and  _598
REMARK  243  A    between atoms: _598  and  _599
REMARK  244  A    between atoms: _601  and  _603
REMARK  245  A    between atoms: _603  and  _604
REMARK  246  A    between atoms: _603  and  _606
REMARK  247  A    between atoms: _606  and  _607
REMARK  248  A    between atoms: _607  and  _608
REMARK  249  A    between atoms: _610  and  _612
REMARK  250  A    between atoms: _612  and  _613
REMARK  251  A    between atoms: _612  and  _615
REMARK  252  A    between atoms: _615  and  _616
REMARK  253  A    between atoms: _616  and  _617
REMARK  254  A    between atoms: _617  and  _618
REMARK  255  A    between atoms: _618  and  _619
REMARK  256  A    between atoms: _623  and  _625
REMARK  257  A    between atoms: _625  and  _626
REMARK  258  A    between atoms: _625  and  _628
REMARK  259  A    between atoms: _628  and  _629
REMARK                            x       y       z     vdW  Elec       q    Type
REMARK                         _______ _______ _______ _____ _____    ______ ____
ROOT
ATOM      1  O   HOH     1      59.993  16.986  32.063  0.00  0.00    +0.000 OA
ENDROOT
TORSDOF 0
REMARK  Name = ../refined-set-2016/2pq9/2pq9_pocket.pdb
REMARK  259 active torsions:
REMARK  status: ('A' for Active; 'I' for Inactive)
REMARK    1  A    between atoms: _1  and  _3
REMARK    2  A    between atoms: _3  and  _4
REMARK    3  A    between atoms: _3  and  _6
REMARK    4  A    between atoms: _6  and  _7
REMARK    5  A    between atoms: _9  and  _11
REMARK    6  A    between atoms: _11  and  _12
REMARK    7  A    between atoms: _11  and  _14
REMARK    8  A    between atoms: _14  and  _15
REMARK    9  A    between atoms: _15  and  _16
REMARK   10  A    between atoms: _16  and  _17
REMARK   11  A    between atoms: _17  and  _18
REMARK   12  A    between atoms: _22  and  _24
REMARK   13  A    between atoms: _24  and  _25
REMARK   14  A    between atoms: _24  and  _27
REMARK   15  A    between atoms: _27  and  _28
REMARK   16  A    between atoms: _30  and  _32
REMARK   17  A    between atoms: _32  and  _33
REMARK   18  A    between atoms: _32  and  _35
REMARK   19  A    between atoms: _38  and  _40
REMARK   20  A    between atoms: _40  and  _41
REMARK   21  A    between atoms: _40  and  _43
REMARK   22  A    between atoms: _43  and  _44
REMARK   23  A    between atoms: _46  and  _48
REMARK   24  A    between atoms: _48  and  _49
REMARK   25  A    between atoms: _48  and  _51
REMARK   26  A    between atoms: _51  and  _52
REMARK   27  A    between atoms: _57  and  _59
REMARK   28  A    between atoms: _59  and  _60
REMARK   29  A    between atoms: _59  and  _62
REMARK   30  A    between atoms: _62  and  _63
REMARK   31  A    between atoms: _63  and  _64
REMARK   32  A    between atoms: _64  and  _65
REMARK   33  A    between atoms: _74  and  _76
REMARK   34  A    between atoms: _76  and  _77
REMARK   35  A    between atoms: _76  and  _79
REMARK   36  A    between atoms: _79  and  _80
REMARK   37  A    between atoms: _83  and  _85
REMARK   38  A    between atoms: _85  and  _86
REMARK   39  A    between atoms: _85  and  _88
REMARK   40  A    between atoms: _88  and  _89
REMARK   41  A    between atoms: _92  and  _94
REMARK   42  A    between atoms: _94  and  _95
REMARK   43  A    between atoms: _97  and  _99
REMARK   44  A    between atoms: _99  and  _100
REMARK   45  A    between atoms: _99  and  _102
REMARK   46  A    between atoms: _102  and  _103
REMARK   47  A    between atoms: _108  and  _110
REMARK   48  A    between atoms: _110  and  _111
REMARK   49  A    between atoms: _114  and  _116
REMARK   50  A    between atoms: _116  and  _117
REMARK   51  A    between atoms: _119  and  _121
REMARK   52  A    between atoms: _121  and  _122
REMARK   53  A    between atoms: _121  and  _124
REMARK   54  A    between atoms: _124  and  _125
REMARK   55  A    between atoms: _128  and  _130
REMARK   56  A    between atoms: _130  and  _131
REMARK   57  A    between atoms: _134  and  _136
REMARK   58  A    between atoms: _136  and  _137
REMARK   59  A    between atoms: _136  and  _139
REMARK   60  A    between atoms: _139  and  _140
REMARK   61  A    between atoms: _140  and  _141
REMARK   62  A    between atoms: _143  and  _145
REMARK   63  A    between atoms: _145  and  _146
REMARK   64  A    between atoms: _145  and  _148
REMARK   65  A    between atoms: _148  and  _149
REMARK   66  A    between atoms: _149  and  _150
REMARK   67  A    between atoms: _150  and  _151
REMARK   68  A    between atoms: _161  and  _162
REMARK   69  A    between atoms: _167  and  _169
REMARK   70  A    between atoms: _169  and  _170
REMARK   71  A    between atoms: _169  and  _172
REMARK   72  A    between atoms: _172  and  _173
REMARK   73  A    between atoms: _173  and  _174
REMARK   74  A    between atoms: _174  and  _175
REMARK   75  A    between atoms: _184  and  _186
REMARK   76  A    between atoms: _186  and  _187
REMARK   77  A    between atoms: _186  and  _189
REMARK   78  A    between atoms: _189  and  _190
REMARK   79  A    between atoms: _190  and  _191
REMARK   80  A    between atoms: _193  and  _195
REMARK   81  A    between atoms: _195  and  _196
REMARK   82  A    between atoms: _195  and  _198
REMARK   83  A    between atoms: _198  and  _199
REMARK   84  A    between atoms: _199  and  _200
REMARK   85  A    between atoms: _200  and  _201
REMARK   86  A    between atoms: _211  and  _212
REMARK   87  A    between atoms: _217  and  _219
REMARK   88  A    between atoms: _219  and  _220
REMARK   89  A    between atoms: _222  and  _224
REMARK   90  A    between atoms: _224  and  _225
REMARK   91  A    between atoms: _224  and  _227
REMARK   92  A    between atoms: _230  and  _232
REMARK   93  A    between atoms: _232  and  _233
REMARK   94  A    between atoms: _232  and  _235
REMARK   95  A    between atoms: _235  and  _236
REMARK   96  A    between atoms: _238  and  _240
REMARK   97  A    between atoms: _240  and  _241
REMARK   98  A    between atoms: _240  and  _243
REMARK   99  A    between atoms: _243  and  _244
REMARK  100  A    between atoms: _246  and  _248
REMARK  101  A    between atoms: _248  and  _249
REMARK  102  A    between atoms: _248  and  _251
REMARK  103  A    between atoms: _251  and  _252
REMARK  104  A    between atoms: _252  and  _253
REMARK  105  A    between atoms: _258  and  _260
REMARK  106  A    between atoms: _260  and  _261
REMARK  107  A    between atoms: _260  and  _263
REMARK  108  A    between atoms: _263  and  _264
REMARK  109  A    between atoms: _270  and  _272
REMARK  110  A    between atoms: _272  and  _273
REMARK  111  A    between atoms: _272  and  _275
REMARK  112  A    between atoms: _275  and  _276
REMARK  113  A    between atoms: _279  and  _281
REMARK  114  A    between atoms: _281  and  _282
REMARK  115  A    between atoms: _281  and  _284
REMARK  116  A    between atoms: _284  and  _285
REMARK  117  A    between atoms: _288  and  _290
REMARK  118  A    between atoms: _290  and  _291
REMARK  119  A    between atoms: _294  and  _296
REMARK  120  A    between atoms: _296  and  _297
REMARK  121  A    between atoms: _296  and  _299
REMARK  122  A    between atoms: _299  and  _300
REMARK  123  A    between atoms: _303  and  _305
REMARK  124  A    between atoms: _305  and  _306
REMARK  125  A    between atoms: _305  and  _308
REMARK  126  A    between atoms: _311  and  _313
REMARK  127  A    between atoms: _313  and  _314
REMARK  128  A    between atoms: _313  and  _316
REMARK  129  A    between atoms: _316  and  _317
REMARK  130  A    between atoms: _319  and  _321
REMARK  131  A    between atoms: _321  and  _322
REMARK  132  A    between atoms: _321  and  _324
REMARK  133  A    between atoms: _324  and  _325
REMARK  134  A    between atoms: _325  and  _326
REMARK  135  A    between atoms: _326  and  _327
REMARK  136  A    between atoms: _327  and  _328
REMARK  137  A    between atoms: _333  and  _334
REMARK  138  A    between atoms: _339  and  _341
REMARK  139  A    between atoms: _341  and  _342
REMARK  140  A    between atoms: _341  and  _344
REMARK  141  A    between atoms: _344  and  _345
REMARK  142  A    between atoms: _350  and  _351
REMARK  143  A    between atoms: _353  and  _355
REMARK  144  A    between atoms: _355  and  _356
REMARK  145  A    between atoms: _355  and  _358
REMARK  146  A    between atoms: _358  and  _359
REMARK  147  A    between atoms: _362  and  _364
REMARK  148  A    between atoms: _364  and  _365
REMARK  149  A    between atoms: _364  and  _367
REMARK  150  A    between atoms: _367  and  _368
REMARK  151  A    between atoms: _371  and  _373
REMARK  152  A    between atoms: _373  and  _374
REMARK  153  A    between atoms: _373  and  _376
REMARK  154  A    between atoms: _376  and  _377
REMARK  155  A    between atoms: _380  and  _382
REMARK  156  A    between atoms: _382  and  _383
REMARK  157  A    between atoms: _382  and  _385
REMARK  158  A    between atoms: _385  and  _386
REMARK  159  A    between atoms: _389  and  _391
REMARK  160  A    between atoms: _391  and  _392
REMARK  161  A    between atoms: _391  and  _394
REMARK  162  A    between atoms: _394  and  _395
REMARK  163  A    between atoms: _397  and  _399
REMARK  164  A    between atoms: _399  and  _400
REMARK  165  A    between atoms: _399  and  _402
REMARK  166  A    between atoms: _402  and  _403
REMARK  167  A    between atoms: _408  and  _409
REMARK  168  A    between atoms: _411  and  _413
REMARK  169  A    between atoms: _413  and  _414
REMARK  170  A    between atoms: _413  and  _416
REMARK  171  A    between atoms: _416  and  _417
REMARK  172  A    between atoms: _420  and  _422
REMARK  173  A    between atoms: _422  and  _423
REMARK  174  A    between atoms: _422  and  _425
REMARK  175  A    between atoms: _425  and  _426
REMARK  176  A    between atoms: _431  and  _433
REMARK  177  A    between atoms: _433  and  _434
REMARK  178  A    between atoms: _433  and  _436
REMARK  179  A    between atoms: _436  and  _437
REMARK  180  A    between atoms: _441  and  _442
REMARK  181  A    between atoms: _447  and  _449
REMARK  182  A    between atoms: _449  and  _450
REMARK  183  A    between atoms: _449  and  _452
REMARK  184  A    between atoms: _452  and  _453
REMARK  185  A    between atoms: _456  and  _458
REMARK  186  A    between atoms: _458  and  _459
REMARK  187  A    between atoms: _462  and  _464
REMARK  188  A    between atoms: _464  and  _465
REMARK  189  A    between atoms: _464  and  _467
REMARK  190  A    between atoms: _467  and  _468
REMARK  191  A    between atoms: _468  and  _469
REMARK  192  A    between atoms: _471  and  _473
REMARK  193  A    between atoms: _473  and  _474
REMARK  194  A    between atoms: _473  and  _476
REMARK  195  A    between atoms: _476  and  _477
REMARK  196  A    between atoms: _482  and  _484
REMARK  197  A    between atoms: _484  and  _485
REMARK  198  A    between atoms: _484  and  _487
REMARK  199  A    between atoms: _487  and  _488
REMARK  200  A    between atoms: _498  and  _500
REMARK  201  A    between atoms: _500  and  _501
REMARK  202  A    between atoms: _500  and  _503
REMARK  203  A    between atoms: _506  and  _508
REMARK  204  A    between atoms: _508  and  _509
REMARK  205  A    between atoms: _508  and  _511
REMARK  206  A    between atoms: _511  and  _512
REMARK  207  A    between atoms: _512  and  _513
REMARK  208  A    between atoms: _513  and  _514
REMARK  209  A    between atoms: _514  and  _515
REMARK  210  A    between atoms: _519  and  _521
REMARK  211  A    between atoms: _521  and  _522
REMARK  212  A    between atoms: _521  and  _524
REMARK  213  A    between atoms: _524  and  _525
REMARK  214  A    between atoms: _525  and  _526
REMARK  215  A    between atoms: _529  and  _531
REMARK  216  A    between atoms: _531  and  _532
REMARK  217  A    between atoms: _531  and  _534
REMARK  218  A    between atoms: _534  and  _535
REMARK  219  A    between atoms: _538  and  _540
REMARK  220  A    between atoms: _540  and  _541
REMARK  221  A    between atoms: _540  and  _543
REMARK  222  A    between atoms: _543  and  _544
REMARK  223  A    between atoms: _544  and  _545
REMARK  224  A    between atoms: _545  and  _546
REMARK  225  A    between atoms: _555  and  _557
REMARK  226  A    between atoms: _557  and  _558
REMARK  227  A    between atoms: _557  and  _560
REMARK  228  A    between atoms: _560  and  _561
REMARK  229  A    between atoms: _564  and  _566
REMARK  230  A    between atoms: _566  and  _567
REMARK  231  A    between atoms: _566  and  _569
REMARK  232  A    between atoms: _569  and  _570
REMARK  233  A    between atoms: _575  and  _577
REMARK  234  A    between atoms: _577  and  _578
REMARK  235  A    between atoms: _577  and  _580
REMARK  236  A    between atoms: _580  and  _581
REMARK  237  A    between atoms: _581  and  _582
REMARK  238  A    between atoms: _582  and  _583
REMARK  239  A    between atoms: _592  and  _594
REMARK  240  A    between atoms: _594  and  _595
REMARK  241  A    between atoms: _594  and  _597
REMARK  242  A    between atoms: _597  and  _598
REMARK  243  A    between atoms: _598  and  _599
REMARK  244  A    between atoms: _601  and  _603
REMARK  245  A    between atoms: _603  and  _604
REMARK  246  A    between atoms: _603  and  _606
REMARK  247  A    between atoms: _606  and  _607
REMARK  248  A    between atoms: _607  and  _608
REMARK  249  A    between atoms: _610  and  _612
REMARK  250  A    between atoms: _612  and  _613
REMARK  251  A    between atoms: _612  and  _615
REMARK  252  A    between atoms: _615  and  _616
REMARK  253  A    between atoms: _616  and  _617
REMARK  254  A    between atoms: _617  and  _618
REMARK  255  A    between atoms: _618  and  _619
REMARK  256  A    between atoms: _623  and  _625
REMARK  257  A    between atoms: _625  and  _626
REMARK  258  A    between atoms: _625  and  _628
REMARK  259  A    between atoms: _628  and  _629
REMARK                            x       y       z     vdW  Elec       q    Type
REMARK                         _______ _______ _______ _____ _____    ______ ____
ROOT
ATOM      1  O   HOH     1      62.244  14.216  32.783  0.00  0.00    +0.000 OA
ENDROOT
TORSDOF 0
REMARK  Name = ../refined-set-2016/2pq9/2pq9_pocket.pdb
REMARK  259 active torsions:
REMARK  status: ('A' for Active; 'I' for Inactive)
REMARK    1  A    between atoms: _1  and  _3
REMARK    2  A    between atoms: _3  and  _4
REMARK    3  A    between atoms: _3  and  _6
REMARK    4  A    between atoms: _6  and  _7
REMARK    5  A    between atoms: _9  and  _11
REMARK    6  A    between atoms: _11  and  _12
REMARK    7  A    between atoms: _11  and  _14
REMARK    8  A    between atoms: _14  and  _15
REMARK    9  A    between atoms: _15  and  _16
REMARK   10  A    between atoms: _16  and  _17
REMARK   11  A    between atoms: _17  and  _18
REMARK   12  A    between atoms: _22  and  _24
REMARK   13  A    between atoms: _24  and  _25
REMARK   14  A    between atoms: _24  and  _27
REMARK   15  A    between atoms: _27  and  _28
REMARK   16  A    between atoms: _30  and  _32
REMARK   17  A    between atoms: _32  and  _33
REMARK   18  A    between atoms: _32  and  _35
REMARK   19  A    between atoms: _38  and  _40
REMARK   20  A    between atoms: _40  and  _41
REMARK   21  A    between atoms: _40  and  _43
REMARK   22  A    between atoms: _43  and  _44
REMARK   23  A    between atoms: _46  and  _48
REMARK   24  A    between atoms: _48  and  _49
REMARK   25  A    between atoms: _48  and  _51
REMARK   26  A    between atoms: _51  and  _52
REMARK   27  A    between atoms: _57  and  _59
REMARK   28  A    between atoms: _59  and  _60
REMARK   29  A    between atoms: _59  and  _62
REMARK   30  A    between atoms: _62  and  _63
REMARK   31  A    between atoms: _63  and  _64
REMARK   32  A    between atoms: _64  and  _65
REMARK   33  A    between atoms: _74  and  _76
REMARK   34  A    between atoms: _76  and  _77
REMARK   35  A    between atoms: _76  and  _79
REMARK   36  A    between atoms: _79  and  _80
REMARK   37  A    between atoms: _83  and  _85
REMARK   38  A    between atoms: _85  and  _86
REMARK   39  A    between atoms: _85  and  _88
REMARK   40  A    between atoms: _88  and  _89
REMARK   41  A    between atoms: _92  and  _94
REMARK   42  A    between atoms: _94  and  _95
REMARK   43  A    between atoms: _97  and  _99
REMARK   44  A    between atoms: _99  and  _100
REMARK   45  A    between atoms: _99  and  _102
REMARK   46  A    between atoms: _102  and  _103
REMARK   47  A    between atoms: _108  and  _110
REMARK   48  A    between atoms: _110  and  _111
REMARK   49  A    between atoms: _114  and  _116
REMARK   50  A    between atoms: _116  and  _117
REMARK   51  A    between atoms: _119  and  _121
REMARK   52  A    between atoms: _121  and  _122
REMARK   53  A    between atoms: _121  and  _124
REMARK   54  A    between atoms: _124  and  _125
REMARK   55  A    between atoms: _128  and  _130
REMARK   56  A    between atoms: _130  and  _131
REMARK   57  A    between atoms: _134  and  _136
REMARK   58  A    between atoms: _136  and  _137
REMARK   59  A    between atoms: _136  and  _139
REMARK   60  A    between atoms: _139  and  _140
REMARK   61  A    between atoms: _140  and  _141
REMARK   62  A    between atoms: _143  and  _145
REMARK   63  A    between atoms: _145  and  _146
REMARK   64  A    between atoms: _145  and  _148
REMARK   65  A    between atoms: _148  and  _149
REMARK   66  A    between atoms: _149  and  _150
REMARK   67  A    between atoms: _150  and  _151
REMARK   68  A    between atoms: _161  and  _162
REMARK   69  A    between atoms: _167  and  _169
REMARK   70  A    between atoms: _169  and  _170
REMARK   71  A    between atoms: _169  and  _172
REMARK   72  A    between atoms: _172  and  _173
REMARK   73  A    between atoms: _173  and  _174
REMARK   74  A    between atoms: _174  and  _175
REMARK   75  A    between atoms: _184  and  _186
REMARK   76  A    between atoms: _186  and  _187
REMARK   77  A    between atoms: _186  and  _189
REMARK   78  A    between atoms: _189  and  _190
REMARK   79  A    between atoms: _190  and  _191
REMARK   80  A    between atoms: _193  and  _195
REMARK   81  A    between atoms: _195  and  _196
REMARK   82  A    between atoms: _195  and  _198
REMARK   83  A    between atoms: _198  and  _199
REMARK   84  A    between atoms: _199  and  _200
REMARK   85  A    between atoms: _200  and  _201
REMARK   86  A    between atoms: _211  and  _212
REMARK   87  A    between atoms: _217  and  _219
REMARK   88  A    between atoms: _219  and  _220
REMARK   89  A    between atoms: _222  and  _224
REMARK   90  A    between atoms: _224  and  _225
REMARK   91  A    between atoms: _224  and  _227
REMARK   92  A    between atoms: _230  and  _232
REMARK   93  A    between atoms: _232  and  _233
REMARK   94  A    between atoms: _232  and  _235
REMARK   95  A    between atoms: _235  and  _236
REMARK   96  A    between atoms: _238  and  _240
REMARK   97  A    between atoms: _240  and  _241
REMARK   98  A    between atoms: _240  and  _243
REMARK   99  A    between atoms: _243  and  _244
REMARK  100  A    between atoms: _246  and  _248
REMARK  101  A    between atoms: _248  and  _249
REMARK  102  A    between atoms: _248  and  _251
REMARK  103  A    between atoms: _251  and  _252
REMARK  104  A    between atoms: _252  and  _253
REMARK  105  A    between atoms: _258  and  _260
REMARK  106  A    between atoms: _260  and  _261
REMARK  107  A    between atoms: _260  and  _263
REMARK  108  A    between atoms: _263  and  _264
REMARK  109  A    between atoms: _270  and  _272
REMARK  110  A    between atoms: _272  and  _273
REMARK  111  A    between atoms: _272  and  _275
REMARK  112  A    between atoms: _275  and  _276
REMARK  113  A    between atoms: _279  and  _281
REMARK  114  A    between atoms: _281  and  _282
REMARK  115  A    between atoms: _281  and  _284
REMARK  116  A    between atoms: _284  and  _285
REMARK  117  A    between atoms: _288  and  _290
REMARK  118  A    between atoms: _290  and  _291
REMARK  119  A    between atoms: _294  and  _296
REMARK  120  A    between atoms: _296  and  _297
REMARK  121  A    between atoms: _296  and  _299
REMARK  122  A    between atoms: _299  and  _300
REMARK  123  A    between atoms: _303  and  _305
REMARK  124  A    between atoms: _305  and  _306
REMARK  125  A    between atoms: _305  and  _308
REMARK  126  A    between atoms: _311  and  _313
REMARK  127  A    between atoms: _313  and  _314
REMARK  128  A    between atoms: _313  and  _316
REMARK  129  A    between atoms: _316  and  _317
REMARK  130  A    between atoms: _319  and  _321
REMARK  131  A    between atoms: _321  and  _322
REMARK  132  A    between atoms: _321  and  _324
REMARK  133  A    between atoms: _324  and  _325
REMARK  134  A    between atoms: _325  and  _326
REMARK  135  A    between atoms: _326  and  _327
REMARK  136  A    between atoms: _327  and  _328
REMARK  137  A    between atoms: _333  and  _334
REMARK  138  A    between atoms: _339  and  _341
REMARK  139  A    between atoms: _341  and  _342
REMARK  140  A    between atoms: _341  and  _344
REMARK  141  A    between atoms: _344  and  _345
REMARK  142  A    between atoms: _350  and  _351
REMARK  143  A    between atoms: _353  and  _355
REMARK  144  A    between atoms: _355  and  _356
REMARK  145  A    between atoms: _355  and  _358
REMARK  146  A    between atoms: _358  and  _359
REMARK  147  A    between atoms: _362  and  _364
REMARK  148  A    between atoms: _364  and  _365
REMARK  149  A    between atoms: _364  and  _367
REMARK  150  A    between atoms: _367  and  _368
REMARK  151  A    between atoms: _371  and  _373
REMARK  152  A    between atoms: _373  and  _374
REMARK  153  A    between atoms: _373  and  _376
REMARK  154  A    between atoms: _376  and  _377
REMARK  155  A    between atoms: _380  and  _382
REMARK  156  A    between atoms: _382  and  _383
REMARK  157  A    between atoms: _382  and  _385
REMARK  158  A    between atoms: _385  and  _386
REMARK  159  A    between atoms: _389  and  _391
REMARK  160  A    between atoms: _391  and  _392
REMARK  161  A    between atoms: _391  and  _394
REMARK  162  A    between atoms: _394  and  _395
REMARK  163  A    between atoms: _397  and  _399
REMARK  164  A    between atoms: _399  and  _400
REMARK  165  A    between atoms: _399  and  _402
REMARK  166  A    between atoms: _402  and  _403
REMARK  167  A    between atoms: _408  and  _409
REMARK  168  A    between atoms: _411  and  _413
REMARK  169  A    between atoms: _413  and  _414
REMARK  170  A    between atoms: _413  and  _416
REMARK  171  A    between atoms: _416  and  _417
REMARK  172  A    between atoms: _420  and  _422
REMARK  173  A    between atoms: _422  and  _423
REMARK  174  A    between atoms: _422  and  _425
REMARK  175  A    between atoms: _425  and  _426
REMARK  176  A    between atoms: _431  and  _433
REMARK  177  A    between atoms: _433  and  _434
REMARK  178  A    between atoms: _433  and  _436
REMARK  179  A    between atoms: _436  and  _437
REMARK  180  A    between atoms: _441  and  _442
REMARK  181  A    between atoms: _447  and  _449
REMARK  182  A    between atoms: _449  and  _450
REMARK  183  A    between atoms: _449  and  _452
REMARK  184  A    between atoms: _452  and  _453
REMARK  185  A    between atoms: _456  and  _458
REMARK  186  A    between atoms: _458  and  _459
REMARK  187  A    between atoms: _462  and  _464
REMARK  188  A    between atoms: _464  and  _465
REMARK  189  A    between atoms: _464  and  _467
REMARK  190  A    between atoms: _467  and  _468
REMARK  191  A    between atoms: _468  and  _469
REMARK  192  A    between atoms: _471  and  _473
REMARK  193  A    between atoms: _473  and  _474
REMARK  194  A    between atoms: _473  and  _476
REMARK  195  A    between atoms: _476  and  _477
REMARK  196  A    between atoms: _482  and  _484
REMARK  197  A    between atoms: _484  and  _485
REMARK  198  A    between atoms: _484  and  _487
REMARK  199  A    between atoms: _487  and  _488
REMARK  200  A    between atoms: _498  and  _500
REMARK  201  A    between atoms: _500  and  _501
REMARK  202  A    between atoms: _500  and  _503
REMARK  203  A    between atoms: _506  and  _508
REMARK  204  A    between atoms: _508  and  _509
REMARK  205  A    between atoms: _508  and  _511
REMARK  206  A    between atoms: _511  and  _512
REMARK  207  A    between atoms: _512  and  _513
REMARK  208  A    between atoms: _513  and  _514
REMARK  209  A    between atoms: _514  and  _515
REMARK  210  A    between atoms: _519  and  _521
REMARK  211  A    between atoms: _521  and  _522
REMARK  212  A    between atoms: _521  and  _524
REMARK  213  A    between atoms: _524  and  _525
REMARK  214  A    between atoms: _525  and  _526
REMARK  215  A    between atoms: _529  and  _531
REMARK  216  A    between atoms: _531  and  _532
REMARK  217  A    between atoms: _531  and  _534
REMARK  218  A    between atoms: _534  and  _535
REMARK  219  A    between atoms: _538  and  _540
REMARK  220  A    between atoms: _540  and  _541
REMARK  221  A    between atoms: _540  and  _543
REMARK  222  A    between atoms: _543  and  _544
REMARK  223  A    between atoms: _544  and  _545
REMARK  224  A    between atoms: _545  and  _546
REMARK  225  A    between atoms: _555  and  _557
REMARK  226  A    between atoms: _557  and  _558
REMARK  227  A    between atoms: _557  and  _560
REMARK  228  A    between atoms: _560  and  _561
REMARK  229  A    between atoms: _564  and  _566
REMARK  230  A    between atoms: _566  and  _567
REMARK  231  A    between atoms: _566  and  _569
REMARK  232  A    between atoms: _569  and  _570
REMARK  233  A    between atoms: _575  and  _577
REMARK  234  A    between atoms: _577  and  _578
REMARK  235  A    between atoms: _577  and  _580
REMARK  236  A    between atoms: _580  and  _581
REMARK  237  A    between atoms: _581  and  _582
REMARK  238  A    between atoms: _582  and  _583
REMARK  239  A    between atoms: _592  and  _594
REMARK  240  A    between atoms: _594  and  _595
REMARK  241  A    between atoms: _594  and  _597
REMARK  242  A    between atoms: _597  and  _598
REMARK  243  A    between atoms: _598  and  _599
REMARK  244  A    between atoms: _601  and  _603
REMARK  245  A    between atoms: _603  and  _604
REMARK  246  A    between atoms: _603  and  _606
REMARK  247  A    between atoms: _606  and  _607
REMARK  248  A    between atoms: _607  and  _608
REMARK  249  A    between atoms: _610  and  _612
REMARK  250  A    between atoms: _612  and  _613
REMARK  251  A    between atoms: _612  and  _615
REMARK  252  A    between atoms: _615  and  _616
REMARK  253  A    between atoms: _616  and  _617
REMARK  254  A    between atoms: _617  and  _618
REMARK  255  A    between atoms: _618  and  _619
REMARK  256  A    between atoms: _623  and  _625
REMARK  257  A    between atoms: _625  and  _626
REMARK  258  A    between atoms: _625  and  _628
REMARK  259  A    between atoms: _628  and  _629
REMARK                            x       y       z     vdW  Elec       q    Type
REMARK                         _______ _______ _______ _____ _____    ______ ____
ROOT
ATOM      1  O   HOH     1      58.043  16.193  33.796  0.00  0.00    +0.000 OA
ENDROOT
TORSDOF 0
REMARK  Name = ../refined-set-2016/2pq9/2pq9_pocket.pdb
REMARK  259 active torsions:
REMARK  status: ('A' for Active; 'I' for Inactive)
REMARK    1  A    between atoms: _1  and  _3
REMARK    2  A    between atoms: _3  and  _4
REMARK    3  A    between atoms: _3  and  _6
REMARK    4  A    between atoms: _6  and  _7
REMARK    5  A    between atoms: _9  and  _11
REMARK    6  A    between atoms: _11  and  _12
REMARK    7  A    between atoms: _11  and  _14
REMARK    8  A    between atoms: _14  and  _15
REMARK    9  A    between atoms: _15  and  _16
REMARK   10  A    between atoms: _16  and  _17
REMARK   11  A    between atoms: _17  and  _18
REMARK   12  A    between atoms: _22  and  _24
REMARK   13  A    between atoms: _24  and  _25
REMARK   14  A    between atoms: _24  and  _27
REMARK   15  A    between atoms: _27  and  _28
REMARK   16  A    between atoms: _30  and  _32
REMARK   17  A    between atoms: _32  and  _33
REMARK   18  A    between atoms: _32  and  _35
REMARK   19  A    between atoms: _38  and  _40
REMARK   20  A    between atoms: _40  and  _41
REMARK   21  A    between atoms: _40  and  _43
REMARK   22  A    between atoms: _43  and  _44
REMARK   23  A    between atoms: _46  and  _48
REMARK   24  A    between atoms: _48  and  _49
REMARK   25  A    between atoms: _48  and  _51
REMARK   26  A    between atoms: _51  and  _52
REMARK   27  A    between atoms: _57  and  _59
REMARK   28  A    between atoms: _59  and  _60
REMARK   29  A    between atoms: _59  and  _62
REMARK   30  A    between atoms: _62  and  _63
REMARK   31  A    between atoms: _63  and  _64
REMARK   32  A    between atoms: _64  and  _65
REMARK   33  A    between atoms: _74  and  _76
REMARK   34  A    between atoms: _76  and  _77
REMARK   35  A    between atoms: _76  and  _79
REMARK   36  A    between atoms: _79  and  _80
REMARK   37  A    between atoms: _83  and  _85
REMARK   38  A    between atoms: _85  and  _86
REMARK   39  A    between atoms: _85  and  _88
REMARK   40  A    between atoms: _88  and  _89
REMARK   41  A    between atoms: _92  and  _94
REMARK   42  A    between atoms: _94  and  _95
REMARK   43  A    between atoms: _97  and  _99
REMARK   44  A    between atoms: _99  and  _100
REMARK   45  A    between atoms: _99  and  _102
REMARK   46  A    between atoms: _102  and  _103
REMARK   47  A    between atoms: _108  and  _110
REMARK   48  A    between atoms: _110  and  _111
REMARK   49  A    between atoms: _114  and  _116
REMARK   50  A    between atoms: _116  and  _117
REMARK   51  A    between atoms: _119  and  _121
REMARK   52  A    between atoms: _121  and  _122
REMARK   53  A    between atoms: _121  and  _124
REMARK   54  A    between atoms: _124  and  _125
REMARK   55  A    between atoms: _128  and  _130
REMARK   56  A    between atoms: _130  and  _131
REMARK   57  A    between atoms: _134  and  _136
REMARK   58  A    between atoms: _136  and  _137
REMARK   59  A    between atoms: _136  and  _139
REMARK   60  A    between atoms: _139  and  _140
REMARK   61  A    between atoms: _140  and  _141
REMARK   62  A    between atoms: _143  and  _145
REMARK   63  A    between atoms: _145  and  _146
REMARK   64  A    between atoms: _145  and  _148
REMARK   65  A    between atoms: _148  and  _149
REMARK   66  A    between atoms: _149  and  _150
REMARK   67  A    between atoms: _150  and  _151
REMARK   68  A    between atoms: _161  and  _162
REMARK   69  A    between atoms: _167  and  _169
REMARK   70  A    between atoms: _169  and  _170
REMARK   71  A    between atoms: _169  and  _172
REMARK   72  A    between atoms: _172  and  _173
REMARK   73  A    between atoms: _173  and  _174
REMARK   74  A    between atoms: _174  and  _175
REMARK   75  A    between atoms: _184  and  _186
REMARK   76  A    between atoms: _186  and  _187
REMARK   77  A    between atoms: _186  and  _189
REMARK   78  A    between atoms: _189  and  _190
REMARK   79  A    between atoms: _190  and  _191
REMARK   80  A    between atoms: _193  and  _195
REMARK   81  A    between atoms: _195  and  _196
REMARK   82  A    between atoms: _195  and  _198
REMARK   83  A    between atoms: _198  and  _199
REMARK   84  A    between atoms: _199  and  _200
REMARK   85  A    between atoms: _200  and  _201
REMARK   86  A    between atoms: _211  and  _212
REMARK   87  A    between atoms: _217  and  _219
REMARK   88  A    between atoms: _219  and  _220
REMARK   89  A    between atoms: _222  and  _224
REMARK   90  A    between atoms: _224  and  _225
REMARK   91  A    between atoms: _224  and  _227
REMARK   92  A    between atoms: _230  and  _232
REMARK   93  A    between atoms: _232  and  _233
REMARK   94  A    between atoms: _232  and  _235
REMARK   95  A    between atoms: _235  and  _236
REMARK   96  A    between atoms: _238  and  _240
REMARK   97  A    between atoms: _240  and  _241
REMARK   98  A    between atoms: _240  and  _243
REMARK   99  A    between atoms: _243  and  _244
REMARK  100  A    between atoms: _246  and  _248
REMARK  101  A    between atoms: _248  and  _249
REMARK  102  A    between atoms: _248  and  _251
REMARK  103  A    between atoms: _251  and  _252
REMARK  104  A    between atoms: _252  and  _253
REMARK  105  A    between atoms: _258  and  _260
REMARK  106  A    between atoms: _260  and  _261
REMARK  107  A    between atoms: _260  and  _263
REMARK  108  A    between atoms: _263  and  _264
REMARK  109  A    between atoms: _270  and  _272
REMARK  110  A    between atoms: _272  and  _273
REMARK  111  A    between atoms: _272  and  _275
REMARK  112  A    between atoms: _275  and  _276
REMARK  113  A    between atoms: _279  and  _281
REMARK  114  A    between atoms: _281  and  _282
REMARK  115  A    between atoms: _281  and  _284
REMARK  116  A    between atoms: _284  and  _285
REMARK  117  A    between atoms: _288  and  _290
REMARK  118  A    between atoms: _290  and  _291
REMARK  119  A    between atoms: _294  and  _296
REMARK  120  A    between atoms: _296  and  _297
REMARK  121  A    between atoms: _296  and  _299
REMARK  122  A    between atoms: _299  and  _300
REMARK  123  A    between atoms: _303  and  _305
REMARK  124  A    between atoms: _305  and  _306
REMARK  125  A    between atoms: _305  and  _308
REMARK  126  A    between atoms: _311  and  _313
REMARK  127  A    between atoms: _313  and  _314
REMARK  128  A    between atoms: _313  and  _316
REMARK  129  A    between atoms: _316  and  _317
REMARK  130  A    between atoms: _319  and  _321
REMARK  131  A    between atoms: _321  and  _322
REMARK  132  A    between atoms: _321  and  _324
REMARK  133  A    between atoms: _324  and  _325
REMARK  134  A    between atoms: _325  and  _326
REMARK  135  A    between atoms: _326  and  _327
REMARK  136  A    between atoms: _327  and  _328
REMARK  137  A    between atoms: _333  and  _334
REMARK  138  A    between atoms: _339  and  _341
REMARK  139  A    between atoms: _341  and  _342
REMARK  140  A    between atoms: _341  and  _344
REMARK  141  A    between atoms: _344  and  _345
REMARK  142  A    between atoms: _350  and  _351
REMARK  143  A    between atoms: _353  and  _355
REMARK  144  A    between atoms: _355  and  _356
REMARK  145  A    between atoms: _355  and  _358
REMARK  146  A    between atoms: _358  and  _359
REMARK  147  A    between atoms: _362  and  _364
REMARK  148  A    between atoms: _364  and  _365
REMARK  149  A    between atoms: _364  and  _367
REMARK  150  A    between atoms: _367  and  _368
REMARK  151  A    between atoms: _371  and  _373
REMARK  152  A    between atoms: _373  and  _374
REMARK  153  A    between atoms: _373  and  _376
REMARK  154  A    between atoms: _376  and  _377
REMARK  155  A    between atoms: _380  and  _382
REMARK  156  A    between atoms: _382  and  _383
REMARK  157  A    between atoms: _382  and  _385
REMARK  158  A    between atoms: _385  and  _386
REMARK  159  A    between atoms: _389  and  _391
REMARK  160  A    between atoms: _391  and  _392
REMARK  161  A    between atoms: _391  and  _394
REMARK  162  A    between atoms: _394  and  _395
REMARK  163  A    between atoms: _397  and  _399
REMARK  164  A    between atoms: _399  and  _400
REMARK  165  A    between atoms: _399  and  _402
REMARK  166  A    between atoms: _402  and  _403
REMARK  167  A    between atoms: _408  and  _409
REMARK  168  A    between atoms: _411  and  _413
REMARK  169  A    between atoms: _413  and  _414
REMARK  170  A    between atoms: _413  and  _416
REMARK  171  A    between atoms: _416  and  _417
REMARK  172  A    between atoms: _420  and  _422
REMARK  173  A    between atoms: _422  and  _423
REMARK  174  A    between atoms: _422  and  _425
REMARK  175  A    between atoms: _425  and  _426
REMARK  176  A    between atoms: _431  and  _433
REMARK  177  A    between atoms: _433  and  _434
REMARK  178  A    between atoms: _433  and  _436
REMARK  179  A    between atoms: _436  and  _437
REMARK  180  A    between atoms: _441  and  _442
REMARK  181  A    between atoms: _447  and  _449
REMARK  182  A    between atoms: _449  and  _450
REMARK  183  A    between atoms: _449  and  _452
REMARK  184  A    between atoms: _452  and  _453
REMARK  185  A    between atoms: _456  and  _458
REMARK  186  A    between atoms: _458  and  _459
REMARK  187  A    between atoms: _462  and  _464
REMARK  188  A    between atoms: _464  and  _465
REMARK  189  A    between atoms: _464  and  _467
REMARK  190  A    between atoms: _467  and  _468
REMARK  191  A    between atoms: _468  and  _469
REMARK  192  A    between atoms: _471  and  _473
REMARK  193  A    between atoms: _473  and  _474
REMARK  194  A    between atoms: _473  and  _476
REMARK  195  A    between atoms: _476  and  _477
REMARK  196  A    between atoms: _482  and  _484
REMARK  197  A    between atoms: _484  and  _485
REMARK  198  A    between atoms: _484  and  _487
REMARK  199  A    between atoms: _487  and  _488
REMARK  200  A    between atoms: _498  and  _500
REMARK  201  A    between atoms: _500  and  _501
REMARK  202  A    between atoms: _500  and  _503
REMARK  203  A    between atoms: _506  and  _508
REMARK  204  A    between atoms: _508  and  _509
REMARK  205  A    between atoms: _508  and  _511
REMARK  206  A    between atoms: _511  and  _512
REMARK  207  A    between atoms: _512  and  _513
REMARK  208  A    between atoms: _513  and  _514
REMARK  209  A    between atoms: _514  and  _515
REMARK  210  A    between atoms: _519  and  _521
REMARK  211  A    between atoms: _521  and  _522
REMARK  212  A    between atoms: _521  and  _524
REMARK  213  A    between atoms: _524  and  _525
REMARK  214  A    between atoms: _525  and  _526
REMARK  215  A    between atoms: _529  and  _531
REMARK  216  A    between atoms: _531  and  _532
REMARK  217  A    between atoms: _531  and  _534
REMARK  218  A    between atoms: _534  and  _535
REMARK  219  A    between atoms: _538  and  _540
REMARK  220  A    between atoms: _540  and  _541
REMARK  221  A    between atoms: _540  and  _543
REMARK  222  A    between atoms: _543  and  _544
REMARK  223  A    between atoms: _544  and  _545
REMARK  224  A    between atoms: _545  and  _546
REMARK  225  A    between atoms: _555  and  _557
REMARK  226  A    between atoms: _557  and  _558
REMARK  227  A    between atoms: _557  and  _560
REMARK  228  A    between atoms: _560  and  _561
REMARK  229  A    between atoms: _564  and  _566
REMARK  230  A    between atoms: _566  and  _567
REMARK  231  A    between atoms: _566  and  _569
REMARK  232  A    between atoms: _569  and  _570
REMARK  233  A    between atoms: _575  and  _577
REMARK  234  A    between atoms: _577  and  _578
REMARK  235  A    between atoms: _577  and  _580
REMARK  236  A    between atoms: _580  and  _581
REMARK  237  A    between atoms: _581  and  _582
REMARK  238  A    between atoms: _582  and  _583
REMARK  239  A    between atoms: _592  and  _594
REMARK  240  A    between atoms: _594  and  _595
REMARK  241  A    between atoms: _594  and  _597
REMARK  242  A    between atoms: _597  and  _598
REMARK  243  A    between atoms: _598  and  _599
REMARK  244  A    between atoms: _601  and  _603
REMARK  245  A    between atoms: _603  and  _604
REMARK  246  A    between atoms: _603  and  _606
REMARK  247  A    between atoms: _606  and  _607
REMARK  248  A    between atoms: _607  and  _608
REMARK  249  A    between atoms: _610  and  _612
REMARK  250  A    between atoms: _612  and  _613
REMARK  251  A    between atoms: _612  and  _615
REMARK  252  A    between atoms: _615  and  _616
REMARK  253  A    between atoms: _616  and  _617
REMARK  254  A    between atoms: _617  and  _618
REMARK  255  A    between atoms: _618  and  _619
REMARK  256  A    between atoms: _623  and  _625
REMARK  257  A    between atoms: _625  and  _626
REMARK  258  A    between atoms: _625  and  _628
REMARK  259  A    between atoms: _628  and  _629
REMARK                            x       y       z     vdW  Elec       q    Type
REMARK                         _______ _______ _______ _____ _____    ______ ____
ROOT
ATOM      1  O   HOH     1      59.887  13.948  31.051  0.00  0.00    +0.000 OA
ENDROOT
TORSDOF 0
REMARK  Name = ../refined-set-2016/2pq9/2pq9_pocket.pdb
REMARK  259 active torsions:
REMARK  status: ('A' for Active; 'I' for Inactive)
REMARK    1  A    between atoms: _1  and  _3
REMARK    2  A    between atoms: _3  and  _4
REMARK    3  A    between atoms: _3  and  _6
REMARK    4  A    between atoms: _6  and  _7
REMARK    5  A    between atoms: _9  and  _11
REMARK    6  A    between atoms: _11  and  _12
REMARK    7  A    between atoms: _11  and  _14
REMARK    8  A    between atoms: _14  and  _15
REMARK    9  A    between atoms: _15  and  _16
REMARK   10  A    between atoms: _16  and  _17
REMARK   11  A    between atoms: _17  and  _18
REMARK   12  A    between atoms: _22  and  _24
REMARK   13  A    between atoms: _24  and  _25
REMARK   14  A    between atoms: _24  and  _27
REMARK   15  A    between atoms: _27  and  _28
REMARK   16  A    between atoms: _30  and  _32
REMARK   17  A    between atoms: _32  and  _33
REMARK   18  A    between atoms: _32  and  _35
REMARK   19  A    between atoms: _38  and  _40
REMARK   20  A    between atoms: _40  and  _41
REMARK   21  A    between atoms: _40  and  _43
REMARK   22  A    between atoms: _43  and  _44
REMARK   23  A    between atoms: _46  and  _48
REMARK   24  A    between atoms: _48  and  _49
REMARK   25  A    between atoms: _48  and  _51
REMARK   26  A    between atoms: _51  and  _52
REMARK   27  A    between atoms: _57  and  _59
REMARK   28  A    between atoms: _59  and  _60
REMARK   29  A    between atoms: _59  and  _62
REMARK   30  A    between atoms: _62  and  _63
REMARK   31  A    between atoms: _63  and  _64
REMARK   32  A    between atoms: _64  and  _65
REMARK   33  A    between atoms: _74  and  _76
REMARK   34  A    between atoms: _76  and  _77
REMARK   35  A    between atoms: _76  and  _79
REMARK   36  A    between atoms: _79  and  _80
REMARK   37  A    between atoms: _83  and  _85
REMARK   38  A    between atoms: _85  and  _86
REMARK   39  A    between atoms: _85  and  _88
REMARK   40  A    between atoms: _88  and  _89
REMARK   41  A    between atoms: _92  and  _94
REMARK   42  A    between atoms: _94  and  _95
REMARK   43  A    between atoms: _97  and  _99
REMARK   44  A    between atoms: _99  and  _100
REMARK   45  A    between atoms: _99  and  _102
REMARK   46  A    between atoms: _102  and  _103
REMARK   47  A    between atoms: _108  and  _110
REMARK   48  A    between atoms: _110  and  _111
REMARK   49  A    between atoms: _114  and  _116
REMARK   50  A    between atoms: _116  and  _117
REMARK   51  A    between atoms: _119  and  _121
REMARK   52  A    between atoms: _121  and  _122
REMARK   53  A    between atoms: _121  and  _124
REMARK   54  A    between atoms: _124  and  _125
REMARK   55  A    between atoms: _128  and  _130
REMARK   56  A    between atoms: _130  and  _131
REMARK   57  A    between atoms: _134  and  _136
REMARK   58  A    between atoms: _136  and  _137
REMARK   59  A    between atoms: _136  and  _139
REMARK   60  A    between atoms: _139  and  _140
REMARK   61  A    between atoms: _140  and  _141
REMARK   62  A    between atoms: _143  and  _145
REMARK   63  A    between atoms: _145  and  _146
REMARK   64  A    between atoms: _145  and  _148
REMARK   65  A    between atoms: _148  and  _149
REMARK   66  A    between atoms: _149  and  _150
REMARK   67  A    between atoms: _150  and  _151
REMARK   68  A    between atoms: _161  and  _162
REMARK   69  A    between atoms: _167  and  _169
REMARK   70  A    between atoms: _169  and  _170
REMARK   71  A    between atoms: _169  and  _172
REMARK   72  A    between atoms: _172  and  _173
REMARK   73  A    between atoms: _173  and  _174
REMARK   74  A    between atoms: _174  and  _175
REMARK   75  A    between atoms: _184  and  _186
REMARK   76  A    between atoms: _186  and  _187
REMARK   77  A    between atoms: _186  and  _189
REMARK   78  A    between atoms: _189  and  _190
REMARK   79  A    between atoms: _190  and  _191
REMARK   80  A    between atoms: _193  and  _195
REMARK   81  A    between atoms: _195  and  _196
REMARK   82  A    between atoms: _195  and  _198
REMARK   83  A    between atoms: _198  and  _199
REMARK   84  A    between atoms: _199  and  _200
REMARK   85  A    between atoms: _200  and  _201
REMARK   86  A    between atoms: _211  and  _212
REMARK   87  A    between atoms: _217  and  _219
REMARK   88  A    between atoms: _219  and  _220
REMARK   89  A    between atoms: _222  and  _224
REMARK   90  A    between atoms: _224  and  _225
REMARK   91  A    between atoms: _224  and  _227
REMARK   92  A    between atoms: _230  and  _232
REMARK   93  A    between atoms: _232  and  _233
REMARK   94  A    between atoms: _232  and  _235
REMARK   95  A    between atoms: _235  and  _236
REMARK   96  A    between atoms: _238  and  _240
REMARK   97  A    between atoms: _240  and  _241
REMARK   98  A    between atoms: _240  and  _243
REMARK   99  A    between atoms: _243  and  _244
REMARK  100  A    between atoms: _246  and  _248
REMARK  101  A    between atoms: _248  and  _249
REMARK  102  A    between atoms: _248  and  _251
REMARK  103  A    between atoms: _251  and  _252
REMARK  104  A    between atoms: _252  and  _253
REMARK  105  A    between atoms: _258  and  _260
REMARK  106  A    between atoms: _260  and  _261
REMARK  107  A    between atoms: _260  and  _263
REMARK  108  A    between atoms: _263  and  _264
REMARK  109  A    between atoms: _270  and  _272
REMARK  110  A    between atoms: _272  and  _273
REMARK  111  A    between atoms: _272  and  _275
REMARK  112  A    between atoms: _275  and  _276
REMARK  113  A    between atoms: _279  and  _281
REMARK  114  A    between atoms: _281  and  _282
REMARK  115  A    between atoms: _281  and  _284
REMARK  116  A    between atoms: _284  and  _285
REMARK  117  A    between atoms: _288  and  _290
REMARK  118  A    between atoms: _290  and  _291
REMARK  119  A    between atoms: _294  and  _296
REMARK  120  A    between atoms: _296  and  _297
REMARK  121  A    between atoms: _296  and  _299
REMARK  122  A    between atoms: _299  and  _300
REMARK  123  A    between atoms: _303  and  _305
REMARK  124  A    between atoms: _305  and  _306
REMARK  125  A    between atoms: _305  and  _308
REMARK  126  A    between atoms: _311  and  _313
REMARK  127  A    between atoms: _313  and  _314
REMARK  128  A    between atoms: _313  and  _316
REMARK  129  A    between atoms: _316  and  _317
REMARK  130  A    between atoms: _319  and  _321
REMARK  131  A    between atoms: _321  and  _322
REMARK  132  A    between atoms: _321  and  _324
REMARK  133  A    between atoms: _324  and  _325
REMARK  134  A    between atoms: _325  and  _326
REMARK  135  A    between atoms: _326  and  _327
REMARK  136  A    between atoms: _327  and  _328
REMARK  137  A    between atoms: _333  and  _334
REMARK  138  A    between atoms: _339  and  _341
REMARK  139  A    between atoms: _341  and  _342
REMARK  140  A    between atoms: _341  and  _344
REMARK  141  A    between atoms: _344  and  _345
REMARK  142  A    between atoms: _350  and  _351
REMARK  143  A    between atoms: _353  and  _355
REMARK  144  A    between atoms: _355  and  _356
REMARK  145  A    between atoms: _355  and  _358
REMARK  146  A    between atoms: _358  and  _359
REMARK  147  A    between atoms: _362  and  _364
REMARK  148  A    between atoms: _364  and  _365
REMARK  149  A    between atoms: _364  and  _367
REMARK  150  A    between atoms: _367  and  _368
REMARK  151  A    between atoms: _371  and  _373
REMARK  152  A    between atoms: _373  and  _374
REMARK  153  A    between atoms: _373  and  _376
REMARK  154  A    between atoms: _376  and  _377
REMARK  155  A    between atoms: _380  and  _382
REMARK  156  A    between atoms: _382  and  _383
REMARK  157  A    between atoms: _382  and  _385
REMARK  158  A    between atoms: _385  and  _386
REMARK  159  A    between atoms: _389  and  _391
REMARK  160  A    between atoms: _391  and  _392
REMARK  161  A    between atoms: _391  and  _394
REMARK  162  A    between atoms: _394  and  _395
REMARK  163  A    between atoms: _397  and  _399
REMARK  164  A    between atoms: _399  and  _400
REMARK  165  A    between atoms: _399  and  _402
REMARK  166  A    between atoms: _402  and  _403
REMARK  167  A    between atoms: _408  and  _409
REMARK  168  A    between atoms: _411  and  _413
REMARK  169  A    between atoms: _413  and  _414
REMARK  170  A    between atoms: _413  and  _416
REMARK  171  A    between atoms: _416  and  _417
REMARK  172  A    between atoms: _420  and  _422
REMARK  173  A    between atoms: _422  and  _423
REMARK  174  A    between atoms: _422  and  _425
REMARK  175  A    between atoms: _425  and  _426
REMARK  176  A    between atoms: _431  and  _433
REMARK  177  A    between atoms: _433  and  _434
REMARK  178  A    between atoms: _433  and  _436
REMARK  179  A    between atoms: _436  and  _437
REMARK  180  A    between atoms: _441  and  _442
REMARK  181  A    between atoms: _447  and  _449
REMARK  182  A    between atoms: _449  and  _450
REMARK  183  A    between atoms: _449  and  _452
REMARK  184  A    between atoms: _452  and  _453
REMARK  185  A    between atoms: _456  and  _458
REMARK  186  A    between atoms: _458  and  _459
REMARK  187  A    between atoms: _462  and  _464
REMARK  188  A    between atoms: _464  and  _465
REMARK  189  A    between atoms: _464  and  _467
REMARK  190  A    between atoms: _467  and  _468
REMARK  191  A    between atoms: _468  and  _469
REMARK  192  A    between atoms: _471  and  _473
REMARK  193  A    between atoms: _473  and  _474
REMARK  194  A    between atoms: _473  and  _476
REMARK  195  A    between atoms: _476  and  _477
REMARK  196  A    between atoms: _482  and  _484
REMARK  197  A    between atoms: _484  and  _485
REMARK  198  A    between atoms: _484  and  _487
REMARK  199  A    between atoms: _487  and  _488
REMARK  200  A    between atoms: _498  and  _500
REMARK  201  A    between atoms: _500  and  _501
REMARK  202  A    between atoms: _500  and  _503
REMARK  203  A    between atoms: _506  and  _508
REMARK  204  A    between atoms: _508  and  _509
REMARK  205  A    between atoms: _508  and  _511
REMARK  206  A    between atoms: _511  and  _512
REMARK  207  A    between atoms: _512  and  _513
REMARK  208  A    between atoms: _513  and  _514
REMARK  209  A    between atoms: _514  and  _515
REMARK  210  A    between atoms: _519  and  _521
REMARK  211  A    between atoms: _521  and  _522
REMARK  212  A    between atoms: _521  and  _524
REMARK  213  A    between atoms: _524  and  _525
REMARK  214  A    between atoms: _525  and  _526
REMARK  215  A    between atoms: _529  and  _531
REMARK  216  A    between atoms: _531  and  _532
REMARK  217  A    between atoms: _531  and  _534
REMARK  218  A    between atoms: _534  and  _535
REMARK  219  A    between atoms: _538  and  _540
REMARK  220  A    between atoms: _540  and  _541
REMARK  221  A    between atoms: _540  and  _543
REMARK  222  A    between atoms: _543  and  _544
REMARK  223  A    between atoms: _544  and  _545
REMARK  224  A    between atoms: _545  and  _546
REMARK  225  A    between atoms: _555  and  _557
REMARK  226  A    between atoms: _557  and  _558
REMARK  227  A    between atoms: _557  and  _560
REMARK  228  A    between atoms: _560  and  _561
REMARK  229  A    between atoms: _564  and  _566
REMARK  230  A    between atoms: _566  and  _567
REMARK  231  A    between atoms: _566  and  _569
REMARK  232  A    between atoms: _569  and  _570
REMARK  233  A    between atoms: _575  and  _577
REMARK  234  A    between atoms: _577  and  _578
REMARK  235  A    between atoms: _577  and  _580
REMARK  236  A    between atoms: _580  and  _581
REMARK  237  A    between atoms: _581  and  _582
REMARK  238  A    between atoms: _582  and  _583
REMARK  239  A    between atoms: _592  and  _594
REMARK  240  A    between atoms: _594  and  _595
REMARK  241  A    between atoms: _594  and  _597
REMARK  242  A    between atoms: _597  and  _598
REMARK  243  A    between atoms: _598  and  _599
REMARK  244  A    between atoms: _601  and  _603
REMARK  245  A    between atoms: _603  and  _604
REMARK  246  A    between atoms: _603  and  _606
REMARK  247  A    between atoms: _606  and  _607
REMARK  248  A    between atoms: _607  and  _608
REMARK  249  A    between atoms: _610  and  _612
REMARK  250  A    between atoms: _612  and  _613
REMARK  251  A    between atoms: _612  and  _615
REMARK  252  A    between atoms: _615  and  _616
REMARK  253  A    between atoms: _616  and  _617
REMARK  254  A    between atoms: _617  and  _618
REMARK  255  A    between atoms: _618  and  _619
REMARK  256  A    between atoms: _623  and  _625
REMARK  257  A    between atoms: _625  and  _626
REMARK  258  A    between atoms: _625  and  _628
REMARK  259  A    between atoms: _628  and  _629
REMARK                            x       y       z     vdW  Elec       q    Type
REMARK                         _______ _______ _______ _____ _____    ______ ____
ROOT
ATOM      1  O   HOH     1      64.303  13.382  35.439  0.00  0.00    +0.000 OA
ENDROOT
TORSDOF 0
REMARK  Name = ../refined-set-2016/2pq9/2pq9_pocket.pdb
REMARK  259 active torsions:
REMARK  status: ('A' for Active; 'I' for Inactive)
REMARK    1  A    between atoms: _1  and  _3
REMARK    2  A    between atoms: _3  and  _4
REMARK    3  A    between atoms: _3  and  _6
REMARK    4  A    between atoms: _6  and  _7
REMARK    5  A    between atoms: _9  and  _11
REMARK    6  A    between atoms: _11  and  _12
REMARK    7  A    between atoms: _11  and  _14
REMARK    8  A    between atoms: _14  and  _15
REMARK    9  A    between atoms: _15  and  _16
REMARK   10  A    between atoms: _16  and  _17
REMARK   11  A    between atoms: _17  and  _18
REMARK   12  A    between atoms: _22  and  _24
REMARK   13  A    between atoms: _24  and  _25
REMARK   14  A    between atoms: _24  and  _27
REMARK   15  A    between atoms: _27  and  _28
REMARK   16  A    between atoms: _30  and  _32
REMARK   17  A    between atoms: _32  and  _33
REMARK   18  A    between atoms: _32  and  _35
REMARK   19  A    between atoms: _38  and  _40
REMARK   20  A    between atoms: _40  and  _41
REMARK   21  A    between atoms: _40  and  _43
REMARK   22  A    between atoms: _43  and  _44
REMARK   23  A    between atoms: _46  and  _48
REMARK   24  A    between atoms: _48  and  _49
REMARK   25  A    between atoms: _48  and  _51
REMARK   26  A    between atoms: _51  and  _52
REMARK   27  A    between atoms: _57  and  _59
REMARK   28  A    between atoms: _59  and  _60
REMARK   29  A    between atoms: _59  and  _62
REMARK   30  A    between atoms: _62  and  _63
REMARK   31  A    between atoms: _63  and  _64
REMARK   32  A    between atoms: _64  and  _65
REMARK   33  A    between atoms: _74  and  _76
REMARK   34  A    between atoms: _76  and  _77
REMARK   35  A    between atoms: _76  and  _79
REMARK   36  A    between atoms: _79  and  _80
REMARK   37  A    between atoms: _83  and  _85
REMARK   38  A    between atoms: _85  and  _86
REMARK   39  A    between atoms: _85  and  _88
REMARK   40  A    between atoms: _88  and  _89
REMARK   41  A    between atoms: _92  and  _94
REMARK   42  A    between atoms: _94  and  _95
REMARK   43  A    between atoms: _97  and  _99
REMARK   44  A    between atoms: _99  and  _100
REMARK   45  A    between atoms: _99  and  _102
REMARK   46  A    between atoms: _102  and  _103
REMARK   47  A    between atoms: _108  and  _110
REMARK   48  A    between atoms: _110  and  _111
REMARK   49  A    between atoms: _114  and  _116
REMARK   50  A    between atoms: _116  and  _117
REMARK   51  A    between atoms: _119  and  _121
REMARK   52  A    between atoms: _121  and  _122
REMARK   53  A    between atoms: _121  and  _124
REMARK   54  A    between atoms: _124  and  _125
REMARK   55  A    between atoms: _128  and  _130
REMARK   56  A    between atoms: _130  and  _131
REMARK   57  A    between atoms: _134  and  _136
REMARK   58  A    between atoms: _136  and  _137
REMARK   59  A    between atoms: _136  and  _139
REMARK   60  A    between atoms: _139  and  _140
REMARK   61  A    between atoms: _140  and  _141
REMARK   62  A    between atoms: _143  and  _145
REMARK   63  A    between atoms: _145  and  _146
REMARK   64  A    between atoms: _145  and  _148
REMARK   65  A    between atoms: _148  and  _149
REMARK   66  A    between atoms: _149  and  _150
REMARK   67  A    between atoms: _150  and  _151
REMARK   68  A    between atoms: _161  and  _162
REMARK   69  A    between atoms: _167  and  _169
REMARK   70  A    between atoms: _169  and  _170
REMARK   71  A    between atoms: _169  and  _172
REMARK   72  A    between atoms: _172  and  _173
REMARK   73  A    between atoms: _173  and  _174
REMARK   74  A    between atoms: _174  and  _175
REMARK   75  A    between atoms: _184  and  _186
REMARK   76  A    between atoms: _186  and  _187
REMARK   77  A    between atoms: _186  and  _189
REMARK   78  A    between atoms: _189  and  _190
REMARK   79  A    between atoms: _190  and  _191
REMARK   80  A    between atoms: _193  and  _195
REMARK   81  A    between atoms: _195  and  _196
REMARK   82  A    between atoms: _195  and  _198
REMARK   83  A    between atoms: _198  and  _199
REMARK   84  A    between atoms: _199  and  _200
REMARK   85  A    between atoms: _200  and  _201
REMARK   86  A    between atoms: _211  and  _212
REMARK   87  A    between atoms: _217  and  _219
REMARK   88  A    between atoms: _219  and  _220
REMARK   89  A    between atoms: _222  and  _224
REMARK   90  A    between atoms: _224  and  _225
REMARK   91  A    between atoms: _224  and  _227
REMARK   92  A    between atoms: _230  and  _232
REMARK   93  A    between atoms: _232  and  _233
REMARK   94  A    between atoms: _232  and  _235
REMARK   95  A    between atoms: _235  and  _236
REMARK   96  A    between atoms: _238  and  _240
REMARK   97  A    between atoms: _240  and  _241
REMARK   98  A    between atoms: _240  and  _243
REMARK   99  A    between atoms: _243  and  _244
REMARK  100  A    between atoms: _246  and  _248
REMARK  101  A    between atoms: _248  and  _249
REMARK  102  A    between atoms: _248  and  _251
REMARK  103  A    between atoms: _251  and  _252
REMARK  104  A    between atoms: _252  and  _253
REMARK  105  A    between atoms: _258  and  _260
REMARK  106  A    between atoms: _260  and  _261
REMARK  107  A    between atoms: _260  and  _263
REMARK  108  A    between atoms: _263  and  _264
REMARK  109  A    between atoms: _270  and  _272
REMARK  110  A    between atoms: _272  and  _273
REMARK  111  A    between atoms: _272  and  _275
REMARK  112  A    between atoms: _275  and  _276
REMARK  113  A    between atoms: _279  and  _281
REMARK  114  A    between atoms: _281  and  _282
REMARK  115  A    between atoms: _281  and  _284
REMARK  116  A    between atoms: _284  and  _285
REMARK  117  A    between atoms: _288  and  _290
REMARK  118  A    between atoms: _290  and  _291
REMARK  119  A    between atoms: _294  and  _296
REMARK  120  A    between atoms: _296  and  _297
REMARK  121  A    between atoms: _296  and  _299
REMARK  122  A    between atoms: _299  and  _300
REMARK  123  A    between atoms: _303  and  _305
REMARK  124  A    between atoms: _305  and  _306
REMARK  125  A    between atoms: _305  and  _308
REMARK  126  A    between atoms: _311  and  _313
REMARK  127  A    between atoms: _313  and  _314
REMARK  128  A    between atoms: _313  and  _316
REMARK  129  A    between atoms: _316  and  _317
REMARK  130  A    between atoms: _319  and  _321
REMARK  131  A    between atoms: _321  and  _322
REMARK  132  A    between atoms: _321  and  _324
REMARK  133  A    between atoms: _324  and  _325
REMARK  134  A    between atoms: _325  and  _326
REMARK  135  A    between atoms: _326  and  _327
REMARK  136  A    between atoms: _327  and  _328
REMARK  137  A    between atoms: _333  and  _334
REMARK  138  A    between atoms: _339  and  _341
REMARK  139  A    between atoms: _341  and  _342
REMARK  140  A    between atoms: _341  and  _344
REMARK  141  A    between atoms: _344  and  _345
REMARK  142  A    between atoms: _350  and  _351
REMARK  143  A    between atoms: _353  and  _355
REMARK  144  A    between atoms: _355  and  _356
REMARK  145  A    between atoms: _355  and  _358
REMARK  146  A    between atoms: _358  and  _359
REMARK  147  A    between atoms: _362  and  _364
REMARK  148  A    between atoms: _364  and  _365
REMARK  149  A    between atoms: _364  and  _367
REMARK  150  A    between atoms: _367  and  _368
REMARK  151  A    between atoms: _371  and  _373
REMARK  152  A    between atoms: _373  and  _374
REMARK  153  A    between atoms: _373  and  _376
REMARK  154  A    between atoms: _376  and  _377
REMARK  155  A    between atoms: _380  and  _382
REMARK  156  A    between atoms: _382  and  _383
REMARK  157  A    between atoms: _382  and  _385
REMARK  158  A    between atoms: _385  and  _386
REMARK  159  A    between atoms: _389  and  _391
REMARK  160  A    between atoms: _391  and  _392
REMARK  161  A    between atoms: _391  and  _394
REMARK  162  A    between atoms: _394  and  _395
REMARK  163  A    between atoms: _397  and  _399
REMARK  164  A    between atoms: _399  and  _400
REMARK  165  A    between atoms: _399  and  _402
REMARK  166  A    between atoms: _402  and  _403
REMARK  167  A    between atoms: _408  and  _409
REMARK  168  A    between atoms: _411  and  _413
REMARK  169  A    between atoms: _413  and  _414
REMARK  170  A    between atoms: _413  and  _416
REMARK  171  A    between atoms: _416  and  _417
REMARK  172  A    between atoms: _420  and  _422
REMARK  173  A    between atoms: _422  and  _423
REMARK  174  A    between atoms: _422  and  _425
REMARK  175  A    between atoms: _425  and  _426
REMARK  176  A    between atoms: _431  and  _433
REMARK  177  A    between atoms: _433  and  _434
REMARK  178  A    between atoms: _433  and  _436
REMARK  179  A    between atoms: _436  and  _437
REMARK  180  A    between atoms: _441  and  _442
REMARK  181  A    between atoms: _447  and  _449
REMARK  182  A    between atoms: _449  and  _450
REMARK  183  A    between atoms: _449  and  _452
REMARK  184  A    between atoms: _452  and  _453
REMARK  185  A    between atoms: _456  and  _458
REMARK  186  A    between atoms: _458  and  _459
REMARK  187  A    between atoms: _462  and  _464
REMARK  188  A    between atoms: _464  and  _465
REMARK  189  A    between atoms: _464  and  _467
REMARK  190  A    between atoms: _467  and  _468
REMARK  191  A    between atoms: _468  and  _469
REMARK  192  A    between atoms: _471  and  _473
REMARK  193  A    between atoms: _473  and  _474
REMARK  194  A    between atoms: _473  and  _476
REMARK  195  A    between atoms: _476  and  _477
REMARK  196  A    between atoms: _482  and  _484
REMARK  197  A    between atoms: _484  and  _485
REMARK  198  A    between atoms: _484  and  _487
REMARK  199  A    between atoms: _487  and  _488
REMARK  200  A    between atoms: _498  and  _500
REMARK  201  A    between atoms: _500  and  _501
REMARK  202  A    between atoms: _500  and  _503
REMARK  203  A    between atoms: _506  and  _508
REMARK  204  A    between atoms: _508  and  _509
REMARK  205  A    between atoms: _508  and  _511
REMARK  206  A    between atoms: _511  and  _512
REMARK  207  A    between atoms: _512  and  _513
REMARK  208  A    between atoms: _513  and  _514
REMARK  209  A    between atoms: _514  and  _515
REMARK  210  A    between atoms: _519  and  _521
REMARK  211  A    between atoms: _521  and  _522
REMARK  212  A    between atoms: _521  and  _524
REMARK  213  A    between atoms: _524  and  _525
REMARK  214  A    between atoms: _525  and  _526
REMARK  215  A    between atoms: _529  and  _531
REMARK  216  A    between atoms: _531  and  _532
REMARK  217  A    between atoms: _531  and  _534
REMARK  218  A    between atoms: _534  and  _535
REMARK  219  A    between atoms: _538  and  _540
REMARK  220  A    between atoms: _540  and  _541
REMARK  221  A    between atoms: _540  and  _543
REMARK  222  A    between atoms: _543  and  _544
REMARK  223  A    between atoms: _544  and  _545
REMARK  224  A    between atoms: _545  and  _546
REMARK  225  A    between atoms: _555  and  _557
REMARK  226  A    between atoms: _557  and  _558
REMARK  227  A    between atoms: _557  and  _560
REMARK  228  A    between atoms: _560  and  _561
REMARK  229  A    between atoms: _564  and  _566
REMARK  230  A    between atoms: _566  and  _567
REMARK  231  A    between atoms: _566  and  _569
REMARK  232  A    between atoms: _569  and  _570
REMARK  233  A    between atoms: _575  and  _577
REMARK  234  A    between atoms: _577  and  _578
REMARK  235  A    between atoms: _577  and  _580
REMARK  236  A    between atoms: _580  and  _581
REMARK  237  A    between atoms: _581  and  _582
REMARK  238  A    between atoms: _582  and  _583
REMARK  239  A    between atoms: _592  and  _594
REMARK  240  A    between atoms: _594  and  _595
REMARK  241  A    between atoms: _594  and  _597
REMARK  242  A    between atoms: _597  and  _598
REMARK  243  A    between atoms: _598  and  _599
REMARK  244  A    between atoms: _601  and  _603
REMARK  245  A    between atoms: _603  and  _604
REMARK  246  A    between atoms: _603  and  _606
REMARK  247  A    between atoms: _606  and  _607
REMARK  248  A    between atoms: _607  and  _608
REMARK  249  A    between atoms: _610  and  _612
REMARK  250  A    between atoms: _612  and  _613
REMARK  251  A    between atoms: _612  and  _615
REMARK  252  A    between atoms: _615  and  _616
REMARK  253  A    between atoms: _616  and  _617
REMARK  254  A    between atoms: _617  and  _618
REMARK  255  A    between atoms: _618  and  _619
REMARK  256  A    between atoms: _623  and  _625
REMARK  257  A    between atoms: _625  and  _626
REMARK  258  A    between atoms: _625  and  _628
REMARK  259  A    between atoms: _628  and  _629
REMARK                            x       y       z     vdW  Elec       q    Type
REMARK                         _______ _______ _______ _____ _____    ______ ____
ROOT
ATOM      1  O   HOH     1      62.863  12.137  25.595  0.00  0.00    +0.000 OA
ENDROOT
TORSDOF 0
REMARK  Name = ../refined-set-2016/2pq9/2pq9_pocket.pdb
REMARK  259 active torsions:
REMARK  status: ('A' for Active; 'I' for Inactive)
REMARK    1  A    between atoms: _1  and  _3
REMARK    2  A    between atoms: _3  and  _4
REMARK    3  A    between atoms: _3  and  _6
REMARK    4  A    between atoms: _6  and  _7
REMARK    5  A    between atoms: _9  and  _11
REMARK    6  A    between atoms: _11  and  _12
REMARK    7  A    between atoms: _11  and  _14
REMARK    8  A    between atoms: _14  and  _15
REMARK    9  A    between atoms: _15  and  _16
REMARK   10  A    between atoms: _16  and  _17
REMARK   11  A    between atoms: _17  and  _18
REMARK   12  A    between atoms: _22  and  _24
REMARK   13  A    between atoms: _24  and  _25
REMARK   14  A    between atoms: _24  and  _27
REMARK   15  A    between atoms: _27  and  _28
REMARK   16  A    between atoms: _30  and  _32
REMARK   17  A    between atoms: _32  and  _33
REMARK   18  A    between atoms: _32  and  _35
REMARK   19  A    between atoms: _38  and  _40
REMARK   20  A    between atoms: _40  and  _41
REMARK   21  A    between atoms: _40  and  _43
REMARK   22  A    between atoms: _43  and  _44
REMARK   23  A    between atoms: _46  and  _48
REMARK   24  A    between atoms: _48  and  _49
REMARK   25  A    between atoms: _48  and  _51
REMARK   26  A    between atoms: _51  and  _52
REMARK   27  A    between atoms: _57  and  _59
REMARK   28  A    between atoms: _59  and  _60
REMARK   29  A    between atoms: _59  and  _62
REMARK   30  A    between atoms: _62  and  _63
REMARK   31  A    between atoms: _63  and  _64
REMARK   32  A    between atoms: _64  and  _65
REMARK   33  A    between atoms: _74  and  _76
REMARK   34  A    between atoms: _76  and  _77
REMARK   35  A    between atoms: _76  and  _79
REMARK   36  A    between atoms: _79  and  _80
REMARK   37  A    between atoms: _83  and  _85
REMARK   38  A    between atoms: _85  and  _86
REMARK   39  A    between atoms: _85  and  _88
REMARK   40  A    between atoms: _88  and  _89
REMARK   41  A    between atoms: _92  and  _94
REMARK   42  A    between atoms: _94  and  _95
REMARK   43  A    between atoms: _97  and  _99
REMARK   44  A    between atoms: _99  and  _100
REMARK   45  A    between atoms: _99  and  _102
REMARK   46  A    between atoms: _102  and  _103
REMARK   47  A    between atoms: _108  and  _110
REMARK   48  A    between atoms: _110  and  _111
REMARK   49  A    between atoms: _114  and  _116
REMARK   50  A    between atoms: _116  and  _117
REMARK   51  A    between atoms: _119  and  _121
REMARK   52  A    between atoms: _121  and  _122
REMARK   53  A    between atoms: _121  and  _124
REMARK   54  A    between atoms: _124  and  _125
REMARK   55  A    between atoms: _128  and  _130
REMARK   56  A    between atoms: _130  and  _131
REMARK   57  A    between atoms: _134  and  _136
REMARK   58  A    between atoms: _136  and  _137
REMARK   59  A    between atoms: _136  and  _139
REMARK   60  A    between atoms: _139  and  _140
REMARK   61  A    between atoms: _140  and  _141
REMARK   62  A    between atoms: _143  and  _145
REMARK   63  A    between atoms: _145  and  _146
REMARK   64  A    between atoms: _145  and  _148
REMARK   65  A    between atoms: _148  and  _149
REMARK   66  A    between atoms: _149  and  _150
REMARK   67  A    between atoms: _150  and  _151
REMARK   68  A    between atoms: _161  and  _162
REMARK   69  A    between atoms: _167  and  _169
REMARK   70  A    between atoms: _169  and  _170
REMARK   71  A    between atoms: _169  and  _172
REMARK   72  A    between atoms: _172  and  _173
REMARK   73  A    between atoms: _173  and  _174
REMARK   74  A    between atoms: _174  and  _175
REMARK   75  A    between atoms: _184  and  _186
REMARK   76  A    between atoms: _186  and  _187
REMARK   77  A    between atoms: _186  and  _189
REMARK   78  A    between atoms: _189  and  _190
REMARK   79  A    between atoms: _190  and  _191
REMARK   80  A    between atoms: _193  and  _195
REMARK   81  A    between atoms: _195  and  _196
REMARK   82  A    between atoms: _195  and  _198
REMARK   83  A    between atoms: _198  and  _199
REMARK   84  A    between atoms: _199  and  _200
REMARK   85  A    between atoms: _200  and  _201
REMARK   86  A    between atoms: _211  and  _212
REMARK   87  A    between atoms: _217  and  _219
REMARK   88  A    between atoms: _219  and  _220
REMARK   89  A    between atoms: _222  and  _224
REMARK   90  A    between atoms: _224  and  _225
REMARK   91  A    between atoms: _224  and  _227
REMARK   92  A    between atoms: _230  and  _232
REMARK   93  A    between atoms: _232  and  _233
REMARK   94  A    between atoms: _232  and  _235
REMARK   95  A    between atoms: _235  and  _236
REMARK   96  A    between atoms: _238  and  _240
REMARK   97  A    between atoms: _240  and  _241
REMARK   98  A    between atoms: _240  and  _243
REMARK   99  A    between atoms: _243  and  _244
REMARK  100  A    between atoms: _246  and  _248
REMARK  101  A    between atoms: _248  and  _249
REMARK  102  A    between atoms: _248  and  _251
REMARK  103  A    between atoms: _251  and  _252
REMARK  104  A    between atoms: _252  and  _253
REMARK  105  A    between atoms: _258  and  _260
REMARK  106  A    between atoms: _260  and  _261
REMARK  107  A    between atoms: _260  and  _263
REMARK  108  A    between atoms: _263  and  _264
REMARK  109  A    between atoms: _270  and  _272
REMARK  110  A    between atoms: _272  and  _273
REMARK  111  A    between atoms: _272  and  _275
REMARK  112  A    between atoms: _275  and  _276
REMARK  113  A    between atoms: _279  and  _281
REMARK  114  A    between atoms: _281  and  _282
REMARK  115  A    between atoms: _281  and  _284
REMARK  116  A    between atoms: _284  and  _285
REMARK  117  A    between atoms: _288  and  _290
REMARK  118  A    between atoms: _290  and  _291
REMARK  119  A    between atoms: _294  and  _296
REMARK  120  A    between atoms: _296  and  _297
REMARK  121  A    between atoms: _296  and  _299
REMARK  122  A    between atoms: _299  and  _300
REMARK  123  A    between atoms: _303  and  _305
REMARK  124  A    between atoms: _305  and  _306
REMARK  125  A    between atoms: _305  and  _308
REMARK  126  A    between atoms: _311  and  _313
REMARK  127  A    between atoms: _313  and  _314
REMARK  128  A    between atoms: _313  and  _316
REMARK  129  A    between atoms: _316  and  _317
REMARK  130  A    between atoms: _319  and  _321
REMARK  131  A    between atoms: _321  and  _322
REMARK  132  A    between atoms: _321  and  _324
REMARK  133  A    between atoms: _324  and  _325
REMARK  134  A    between atoms: _325  and  _326
REMARK  135  A    between atoms: _326  and  _327
REMARK  136  A    between atoms: _327  and  _328
REMARK  137  A    between atoms: _333  and  _334
REMARK  138  A    between atoms: _339  and  _341
REMARK  139  A    between atoms: _341  and  _342
REMARK  140  A    between atoms: _341  and  _344
REMARK  141  A    between atoms: _344  and  _345
REMARK  142  A    between atoms: _350  and  _351
REMARK  143  A    between atoms: _353  and  _355
REMARK  144  A    between atoms: _355  and  _356
REMARK  145  A    between atoms: _355  and  _358
REMARK  146  A    between atoms: _358  and  _359
REMARK  147  A    between atoms: _362  and  _364
REMARK  148  A    between atoms: _364  and  _365
REMARK  149  A    between atoms: _364  and  _367
REMARK  150  A    between atoms: _367  and  _368
REMARK  151  A    between atoms: _371  and  _373
REMARK  152  A    between atoms: _373  and  _374
REMARK  153  A    between atoms: _373  and  _376
REMARK  154  A    between atoms: _376  and  _377
REMARK  155  A    between atoms: _380  and  _382
REMARK  156  A    between atoms: _382  and  _383
REMARK  157  A    between atoms: _382  and  _385
REMARK  158  A    between atoms: _385  and  _386
REMARK  159  A    between atoms: _389  and  _391
REMARK  160  A    between atoms: _391  and  _392
REMARK  161  A    between atoms: _391  and  _394
REMARK  162  A    between atoms: _394  and  _395
REMARK  163  A    between atoms: _397  and  _399
REMARK  164  A    between atoms: _399  and  _400
REMARK  165  A    between atoms: _399  and  _402
REMARK  166  A    between atoms: _402  and  _403
REMARK  167  A    between atoms: _408  and  _409
REMARK  168  A    between atoms: _411  and  _413
REMARK  169  A    between atoms: _413  and  _414
REMARK  170  A    between atoms: _413  and  _416
REMARK  171  A    between atoms: _416  and  _417
REMARK  172  A    between atoms: _420  and  _422
REMARK  173  A    between atoms: _422  and  _423
REMARK  174  A    between atoms: _422  and  _425
REMARK  175  A    between atoms: _425  and  _426
REMARK  176  A    between atoms: _431  and  _433
REMARK  177  A    between atoms: _433  and  _434
REMARK  178  A    between atoms: _433  and  _436
REMARK  179  A    between atoms: _436  and  _437
REMARK  180  A    between atoms: _441  and  _442
REMARK  181  A    between atoms: _447  and  _449
REMARK  182  A    between atoms: _449  and  _450
REMARK  183  A    between atoms: _449  and  _452
REMARK  184  A    between atoms: _452  and  _453
REMARK  185  A    between atoms: _456  and  _458
REMARK  186  A    between atoms: _458  and  _459
REMARK  187  A    between atoms: _462  and  _464
REMARK  188  A    between atoms: _464  and  _465
REMARK  189  A    between atoms: _464  and  _467
REMARK  190  A    between atoms: _467  and  _468
REMARK  191  A    between atoms: _468  and  _469
REMARK  192  A    between atoms: _471  and  _473
REMARK  193  A    between atoms: _473  and  _474
REMARK  194  A    between atoms: _473  and  _476
REMARK  195  A    between atoms: _476  and  _477
REMARK  196  A    between atoms: _482  and  _484
REMARK  197  A    between atoms: _484  and  _485
REMARK  198  A    between atoms: _484  and  _487
REMARK  199  A    between atoms: _487  and  _488
REMARK  200  A    between atoms: _498  and  _500
REMARK  201  A    between atoms: _500  and  _501
REMARK  202  A    between atoms: _500  and  _503
REMARK  203  A    between atoms: _506  and  _508
REMARK  204  A    between atoms: _508  and  _509
REMARK  205  A    between atoms: _508  and  _511
REMARK  206  A    between atoms: _511  and  _512
REMARK  207  A    between atoms: _512  and  _513
REMARK  208  A    between atoms: _513  and  _514
REMARK  209  A    between atoms: _514  and  _515
REMARK  210  A    between atoms: _519  and  _521
REMARK  211  A    between atoms: _521  and  _522
REMARK  212  A    between atoms: _521  and  _524
REMARK  213  A    between atoms: _524  and  _525
REMARK  214  A    between atoms: _525  and  _526
REMARK  215  A    between atoms: _529  and  _531
REMARK  216  A    between atoms: _531  and  _532
REMARK  217  A    between atoms: _531  and  _534
REMARK  218  A    between atoms: _534  and  _535
REMARK  219  A    between atoms: _538  and  _540
REMARK  220  A    between atoms: _540  and  _541
REMARK  221  A    between atoms: _540  and  _543
REMARK  222  A    between atoms: _543  and  _544
REMARK  223  A    between atoms: _544  and  _545
REMARK  224  A    between atoms: _545  and  _546
REMARK  225  A    between atoms: _555  and  _557
REMARK  226  A    between atoms: _557  and  _558
REMARK  227  A    between atoms: _557  and  _560
REMARK  228  A    between atoms: _560  and  _561
REMARK  229  A    between atoms: _564  and  _566
REMARK  230  A    between atoms: _566  and  _567
REMARK  231  A    between atoms: _566  and  _569
REMARK  232  A    between atoms: _569  and  _570
REMARK  233  A    between atoms: _575  and  _577
REMARK  234  A    between atoms: _577  and  _578
REMARK  235  A    between atoms: _577  and  _580
REMARK  236  A    between atoms: _580  and  _581
REMARK  237  A    between atoms: _581  and  _582
REMARK  238  A    between atoms: _582  and  _583
REMARK  239  A    between atoms: _592  and  _594
REMARK  240  A    between atoms: _594  and  _595
REMARK  241  A    between atoms: _594  and  _597
REMARK  242  A    between atoms: _597  and  _598
REMARK  243  A    between atoms: _598  and  _599
REMARK  244  A    between atoms: _601  and  _603
REMARK  245  A    between atoms: _603  and  _604
REMARK  246  A    between atoms: _603  and  _606
REMARK  247  A    between atoms: _606  and  _607
REMARK  248  A    between atoms: _607  and  _608
REMARK  249  A    between atoms: _610  and  _612
REMARK  250  A    between atoms: _612  and  _613
REMARK  251  A    between atoms: _612  and  _615
REMARK  252  A    between atoms: _615  and  _616
REMARK  253  A    between atoms: _616  and  _617
REMARK  254  A    between atoms: _617  and  _618
REMARK  255  A    between atoms: _618  and  _619
REMARK  256  A    between atoms: _623  and  _625
REMARK  257  A    between atoms: _625  and  _626
REMARK  258  A    between atoms: _625  and  _628
REMARK  259  A    between atoms: _628  and  _629
REMARK                            x       y       z     vdW  Elec       q    Type
REMARK                         _______ _______ _______ _____ _____    ______ ____
ROOT
ATOM      1  O   HOH     1      49.186   3.978  22.344  0.00  0.00    +0.000 OA
ENDROOT
TORSDOF 0
REMARK  Name = ../refined-set-2016/2pq9/2pq9_pocket.pdb
REMARK  259 active torsions:
REMARK  status: ('A' for Active; 'I' for Inactive)
REMARK    1  A    between atoms: _1  and  _3
REMARK    2  A    between atoms: _3  and  _4
REMARK    3  A    between atoms: _3  and  _6
REMARK    4  A    between atoms: _6  and  _7
REMARK    5  A    between atoms: _9  and  _11
REMARK    6  A    between atoms: _11  and  _12
REMARK    7  A    between atoms: _11  and  _14
REMARK    8  A    between atoms: _14  and  _15
REMARK    9  A    between atoms: _15  and  _16
REMARK   10  A    between atoms: _16  and  _17
REMARK   11  A    between atoms: _17  and  _18
REMARK   12  A    between atoms: _22  and  _24
REMARK   13  A    between atoms: _24  and  _25
REMARK   14  A    between atoms: _24  and  _27
REMARK   15  A    between atoms: _27  and  _28
REMARK   16  A    between atoms: _30  and  _32
REMARK   17  A    between atoms: _32  and  _33
REMARK   18  A    between atoms: _32  and  _35
REMARK   19  A    between atoms: _38  and  _40
REMARK   20  A    between atoms: _40  and  _41
REMARK   21  A    between atoms: _40  and  _43
REMARK   22  A    between atoms: _43  and  _44
REMARK   23  A    between atoms: _46  and  _48
REMARK   24  A    between atoms: _48  and  _49
REMARK   25  A    between atoms: _48  and  _51
REMARK   26  A    between atoms: _51  and  _52
REMARK   27  A    between atoms: _57  and  _59
REMARK   28  A    between atoms: _59  and  _60
REMARK   29  A    between atoms: _59  and  _62
REMARK   30  A    between atoms: _62  and  _63
REMARK   31  A    between atoms: _63  and  _64
REMARK   32  A    between atoms: _64  and  _65
REMARK   33  A    between atoms: _74  and  _76
REMARK   34  A    between atoms: _76  and  _77
REMARK   35  A    between atoms: _76  and  _79
REMARK   36  A    between atoms: _79  and  _80
REMARK   37  A    between atoms: _83  and  _85
REMARK   38  A    between atoms: _85  and  _86
REMARK   39  A    between atoms: _85  and  _88
REMARK   40  A    between atoms: _88  and  _89
REMARK   41  A    between atoms: _92  and  _94
REMARK   42  A    between atoms: _94  and  _95
REMARK   43  A    between atoms: _97  and  _99
REMARK   44  A    between atoms: _99  and  _100
REMARK   45  A    between atoms: _99  and  _102
REMARK   46  A    between atoms: _102  and  _103
REMARK   47  A    between atoms: _108  and  _110
REMARK   48  A    between atoms: _110  and  _111
REMARK   49  A    between atoms: _114  and  _116
REMARK   50  A    between atoms: _116  and  _117
REMARK   51  A    between atoms: _119  and  _121
REMARK   52  A    between atoms: _121  and  _122
REMARK   53  A    between atoms: _121  and  _124
REMARK   54  A    between atoms: _124  and  _125
REMARK   55  A    between atoms: _128  and  _130
REMARK   56  A    between atoms: _130  and  _131
REMARK   57  A    between atoms: _134  and  _136
REMARK   58  A    between atoms: _136  and  _137
REMARK   59  A    between atoms: _136  and  _139
REMARK   60  A    between atoms: _139  and  _140
REMARK   61  A    between atoms: _140  and  _141
REMARK   62  A    between atoms: _143  and  _145
REMARK   63  A    between atoms: _145  and  _146
REMARK   64  A    between atoms: _145  and  _148
REMARK   65  A    between atoms: _148  and  _149
REMARK   66  A    between atoms: _149  and  _150
REMARK   67  A    between atoms: _150  and  _151
REMARK   68  A    between atoms: _161  and  _162
REMARK   69  A    between atoms: _167  and  _169
REMARK   70  A    between atoms: _169  and  _170
REMARK   71  A    between atoms: _169  and  _172
REMARK   72  A    between atoms: _172  and  _173
REMARK   73  A    between atoms: _173  and  _174
REMARK   74  A    between atoms: _174  and  _175
REMARK   75  A    between atoms: _184  and  _186
REMARK   76  A    between atoms: _186  and  _187
REMARK   77  A    between atoms: _186  and  _189
REMARK   78  A    between atoms: _189  and  _190
REMARK   79  A    between atoms: _190  and  _191
REMARK   80  A    between atoms: _193  and  _195
REMARK   81  A    between atoms: _195  and  _196
REMARK   82  A    between atoms: _195  and  _198
REMARK   83  A    between atoms: _198  and  _199
REMARK   84  A    between atoms: _199  and  _200
REMARK   85  A    between atoms: _200  and  _201
REMARK   86  A    between atoms: _211  and  _212
REMARK   87  A    between atoms: _217  and  _219
REMARK   88  A    between atoms: _219  and  _220
REMARK   89  A    between atoms: _222  and  _224
REMARK   90  A    between atoms: _224  and  _225
REMARK   91  A    between atoms: _224  and  _227
REMARK   92  A    between atoms: _230  and  _232
REMARK   93  A    between atoms: _232  and  _233
REMARK   94  A    between atoms: _232  and  _235
REMARK   95  A    between atoms: _235  and  _236
REMARK   96  A    between atoms: _238  and  _240
REMARK   97  A    between atoms: _240  and  _241
REMARK   98  A    between atoms: _240  and  _243
REMARK   99  A    between atoms: _243  and  _244
REMARK  100  A    between atoms: _246  and  _248
REMARK  101  A    between atoms: _248  and  _249
REMARK  102  A    between atoms: _248  and  _251
REMARK  103  A    between atoms: _251  and  _252
REMARK  104  A    between atoms: _252  and  _253
REMARK  105  A    between atoms: _258  and  _260
REMARK  106  A    between atoms: _260  and  _261
REMARK  107  A    between atoms: _260  and  _263
REMARK  108  A    between atoms: _263  and  _264
REMARK  109  A    between atoms: _270  and  _272
REMARK  110  A    between atoms: _272  and  _273
REMARK  111  A    between atoms: _272  and  _275
REMARK  112  A    between atoms: _275  and  _276
REMARK  113  A    between atoms: _279  and  _281
REMARK  114  A    between atoms: _281  and  _282
REMARK  115  A    between atoms: _281  and  _284
REMARK  116  A    between atoms: _284  and  _285
REMARK  117  A    between atoms: _288  and  _290
REMARK  118  A    between atoms: _290  and  _291
REMARK  119  A    between atoms: _294  and  _296
REMARK  120  A    between atoms: _296  and  _297
REMARK  121  A    between atoms: _296  and  _299
REMARK  122  A    between atoms: _299  and  _300
REMARK  123  A    between atoms: _303  and  _305
REMARK  124  A    between atoms: _305  and  _306
REMARK  125  A    between atoms: _305  and  _308
REMARK  126  A    between atoms: _311  and  _313
REMARK  127  A    between atoms: _313  and  _314
REMARK  128  A    between atoms: _313  and  _316
REMARK  129  A    between atoms: _316  and  _317
REMARK  130  A    between atoms: _319  and  _321
REMARK  131  A    between atoms: _321  and  _322
REMARK  132  A    between atoms: _321  and  _324
REMARK  133  A    between atoms: _324  and  _325
REMARK  134  A    between atoms: _325  and  _326
REMARK  135  A    between atoms: _326  and  _327
REMARK  136  A    between atoms: _327  and  _328
REMARK  137  A    between atoms: _333  and  _334
REMARK  138  A    between atoms: _339  and  _341
REMARK  139  A    between atoms: _341  and  _342
REMARK  140  A    between atoms: _341  and  _344
REMARK  141  A    between atoms: _344  and  _345
REMARK  142  A    between atoms: _350  and  _351
REMARK  143  A    between atoms: _353  and  _355
REMARK  144  A    between atoms: _355  and  _356
REMARK  145  A    between atoms: _355  and  _358
REMARK  146  A    between atoms: _358  and  _359
REMARK  147  A    between atoms: _362  and  _364
REMARK  148  A    between atoms: _364  and  _365
REMARK  149  A    between atoms: _364  and  _367
REMARK  150  A    between atoms: _367  and  _368
REMARK  151  A    between atoms: _371  and  _373
REMARK  152  A    between atoms: _373  and  _374
REMARK  153  A    between atoms: _373  and  _376
REMARK  154  A    between atoms: _376  and  _377
REMARK  155  A    between atoms: _380  and  _382
REMARK  156  A    between atoms: _382  and  _383
REMARK  157  A    between atoms: _382  and  _385
REMARK  158  A    between atoms: _385  and  _386
REMARK  159  A    between atoms: _389  and  _391
REMARK  160  A    between atoms: _391  and  _392
REMARK  161  A    between atoms: _391  and  _394
REMARK  162  A    between atoms: _394  and  _395
REMARK  163  A    between atoms: _397  and  _399
REMARK  164  A    between atoms: _399  and  _400
REMARK  165  A    between atoms: _399  and  _402
REMARK  166  A    between atoms: _402  and  _403
REMARK  167  A    between atoms: _408  and  _409
REMARK  168  A    between atoms: _411  and  _413
REMARK  169  A    between atoms: _413  and  _414
REMARK  170  A    between atoms: _413  and  _416
REMARK  171  A    between atoms: _416  and  _417
REMARK  172  A    between atoms: _420  and  _422
REMARK  173  A    between atoms: _422  and  _423
REMARK  174  A    between atoms: _422  and  _425
REMARK  175  A    between atoms: _425  and  _426
REMARK  176  A    between atoms: _431  and  _433
REMARK  177  A    between atoms: _433  and  _434
REMARK  178  A    between atoms: _433  and  _436
REMARK  179  A    between atoms: _436  and  _437
REMARK  180  A    between atoms: _441  and  _442
REMARK  181  A    between atoms: _447  and  _449
REMARK  182  A    between atoms: _449  and  _450
REMARK  183  A    between atoms: _449  and  _452
REMARK  184  A    between atoms: _452  and  _453
REMARK  185  A    between atoms: _456  and  _458
REMARK  186  A    between atoms: _458  and  _459
REMARK  187  A    between atoms: _462  and  _464
REMARK  188  A    between atoms: _464  and  _465
REMARK  189  A    between atoms: _464  and  _467
REMARK  190  A    between atoms: _467  and  _468
REMARK  191  A    between atoms: _468  and  _469
REMARK  192  A    between atoms: _471  and  _473
REMARK  193  A    between atoms: _473  and  _474
REMARK  194  A    between atoms: _473  and  _476
REMARK  195  A    between atoms: _476  and  _477
REMARK  196  A    between atoms: _482  and  _484
REMARK  197  A    between atoms: _484  and  _485
REMARK  198  A    between atoms: _484  and  _487
REMARK  199  A    between atoms: _487  and  _488
REMARK  200  A    between atoms: _498  and  _500
REMARK  201  A    between atoms: _500  and  _501
REMARK  202  A    between atoms: _500  and  _503
REMARK  203  A    between atoms: _506  and  _508
REMARK  204  A    between atoms: _508  and  _509
REMARK  205  A    between atoms: _508  and  _511
REMARK  206  A    between atoms: _511  and  _512
REMARK  207  A    between atoms: _512  and  _513
REMARK  208  A    between atoms: _513  and  _514
REMARK  209  A    between atoms: _514  and  _515
REMARK  210  A    between atoms: _519  and  _521
REMARK  211  A    between atoms: _521  and  _522
REMARK  212  A    between atoms: _521  and  _524
REMARK  213  A    between atoms: _524  and  _525
REMARK  214  A    between atoms: _525  and  _526
REMARK  215  A    between atoms: _529  and  _531
REMARK  216  A    between atoms: _531  and  _532
REMARK  217  A    between atoms: _531  and  _534
REMARK  218  A    between atoms: _534  and  _535
REMARK  219  A    between atoms: _538  and  _540
REMARK  220  A    between atoms: _540  and  _541
REMARK  221  A    between atoms: _540  and  _543
REMARK  222  A    between atoms: _543  and  _544
REMARK  223  A    between atoms: _544  and  _545
REMARK  224  A    between atoms: _545  and  _546
REMARK  225  A    between atoms: _555  and  _557
REMARK  226  A    between atoms: _557  and  _558
REMARK  227  A    between atoms: _557  and  _560
REMARK  228  A    between atoms: _560  and  _561
REMARK  229  A    between atoms: _564  and  _566
REMARK  230  A    between atoms: _566  and  _567
REMARK  231  A    between atoms: _566  and  _569
REMARK  232  A    between atoms: _569  and  _570
REMARK  233  A    between atoms: _575  and  _577
REMARK  234  A    between atoms: _577  and  _578
REMARK  235  A    between atoms: _577  and  _580
REMARK  236  A    between atoms: _580  and  _581
REMARK  237  A    between atoms: _581  and  _582
REMARK  238  A    between atoms: _582  and  _583
REMARK  239  A    between atoms: _592  and  _594
REMARK  240  A    between atoms: _594  and  _595
REMARK  241  A    between atoms: _594  and  _597
REMARK  242  A    between atoms: _597  and  _598
REMARK  243  A    between atoms: _598  and  _599
REMARK  244  A    between atoms: _601  and  _603
REMARK  245  A    between atoms: _603  and  _604
REMARK  246  A    between atoms: _603  and  _606
REMARK  247  A    between atoms: _606  and  _607
REMARK  248  A    between atoms: _607  and  _608
REMARK  249  A    between atoms: _610  and  _612
REMARK  250  A    between atoms: _612  and  _613
REMARK  251  A    between atoms: _612  and  _615
REMARK  252  A    between atoms: _615  and  _616
REMARK  253  A    between atoms: _616  and  _617
REMARK  254  A    between atoms: _617  and  _618
REMARK  255  A    between atoms: _618  and  _619
REMARK  256  A    between atoms: _623  and  _625
REMARK  257  A    between atoms: _625  and  _626
REMARK  258  A    between atoms: _625  and  _628
REMARK  259  A    between atoms: _628  and  _629
REMARK                            x       y       z     vdW  Elec       q    Type
REMARK                         _______ _______ _______ _____ _____    ______ ____
ROOT
ATOM      1  O   HOH     1      51.425   4.072  33.004  0.00  0.00    +0.000 OA
ENDROOT
TORSDOF 0
REMARK  Name = ../refined-set-2016/2pq9/2pq9_pocket.pdb
REMARK  259 active torsions:
REMARK  status: ('A' for Active; 'I' for Inactive)
REMARK    1  A    between atoms: _1  and  _3
REMARK    2  A    between atoms: _3  and  _4
REMARK    3  A    between atoms: _3  and  _6
REMARK    4  A    between atoms: _6  and  _7
REMARK    5  A    between atoms: _9  and  _11
REMARK    6  A    between atoms: _11  and  _12
REMARK    7  A    between atoms: _11  and  _14
REMARK    8  A    between atoms: _14  and  _15
REMARK    9  A    between atoms: _15  and  _16
REMARK   10  A    between atoms: _16  and  _17
REMARK   11  A    between atoms: _17  and  _18
REMARK   12  A    between atoms: _22  and  _24
REMARK   13  A    between atoms: _24  and  _25
REMARK   14  A    between atoms: _24  and  _27
REMARK   15  A    between atoms: _27  and  _28
REMARK   16  A    between atoms: _30  and  _32
REMARK   17  A    between atoms: _32  and  _33
REMARK   18  A    between atoms: _32  and  _35
REMARK   19  A    between atoms: _38  and  _40
REMARK   20  A    between atoms: _40  and  _41
REMARK   21  A    between atoms: _40  and  _43
REMARK   22  A    between atoms: _43  and  _44
REMARK   23  A    between atoms: _46  and  _48
REMARK   24  A    between atoms: _48  and  _49
REMARK   25  A    between atoms: _48  and  _51
REMARK   26  A    between atoms: _51  and  _52
REMARK   27  A    between atoms: _57  and  _59
REMARK   28  A    between atoms: _59  and  _60
REMARK   29  A    between atoms: _59  and  _62
REMARK   30  A    between atoms: _62  and  _63
REMARK   31  A    between atoms: _63  and  _64
REMARK   32  A    between atoms: _64  and  _65
REMARK   33  A    between atoms: _74  and  _76
REMARK   34  A    between atoms: _76  and  _77
REMARK   35  A    between atoms: _76  and  _79
REMARK   36  A    between atoms: _79  and  _80
REMARK   37  A    between atoms: _83  and  _85
REMARK   38  A    between atoms: _85  and  _86
REMARK   39  A    between atoms: _85  and  _88
REMARK   40  A    between atoms: _88  and  _89
REMARK   41  A    between atoms: _92  and  _94
REMARK   42  A    between atoms: _94  and  _95
REMARK   43  A    between atoms: _97  and  _99
REMARK   44  A    between atoms: _99  and  _100
REMARK   45  A    between atoms: _99  and  _102
REMARK   46  A    between atoms: _102  and  _103
REMARK   47  A    between atoms: _108  and  _110
REMARK   48  A    between atoms: _110  and  _111
REMARK   49  A    between atoms: _114  and  _116
REMARK   50  A    between atoms: _116  and  _117
REMARK   51  A    between atoms: _119  and  _121
REMARK   52  A    between atoms: _121  and  _122
REMARK   53  A    between atoms: _121  and  _124
REMARK   54  A    between atoms: _124  and  _125
REMARK   55  A    between atoms: _128  and  _130
REMARK   56  A    between atoms: _130  and  _131
REMARK   57  A    between atoms: _134  and  _136
REMARK   58  A    between atoms: _136  and  _137
REMARK   59  A    between atoms: _136  and  _139
REMARK   60  A    between atoms: _139  and  _140
REMARK   61  A    between atoms: _140  and  _141
REMARK   62  A    between atoms: _143  and  _145
REMARK   63  A    between atoms: _145  and  _146
REMARK   64  A    between atoms: _145  and  _148
REMARK   65  A    between atoms: _148  and  _149
REMARK   66  A    between atoms: _149  and  _150
REMARK   67  A    between atoms: _150  and  _151
REMARK   68  A    between atoms: _161  and  _162
REMARK   69  A    between atoms: _167  and  _169
REMARK   70  A    between atoms: _169  and  _170
REMARK   71  A    between atoms: _169  and  _172
REMARK   72  A    between atoms: _172  and  _173
REMARK   73  A    between atoms: _173  and  _174
REMARK   74  A    between atoms: _174  and  _175
REMARK   75  A    between atoms: _184  and  _186
REMARK   76  A    between atoms: _186  and  _187
REMARK   77  A    between atoms: _186  and  _189
REMARK   78  A    between atoms: _189  and  _190
REMARK   79  A    between atoms: _190  and  _191
REMARK   80  A    between atoms: _193  and  _195
REMARK   81  A    between atoms: _195  and  _196
REMARK   82  A    between atoms: _195  and  _198
REMARK   83  A    between atoms: _198  and  _199
REMARK   84  A    between atoms: _199  and  _200
REMARK   85  A    between atoms: _200  and  _201
REMARK   86  A    between atoms: _211  and  _212
REMARK   87  A    between atoms: _217  and  _219
REMARK   88  A    between atoms: _219  and  _220
REMARK   89  A    between atoms: _222  and  _224
REMARK   90  A    between atoms: _224  and  _225
REMARK   91  A    between atoms: _224  and  _227
REMARK   92  A    between atoms: _230  and  _232
REMARK   93  A    between atoms: _232  and  _233
REMARK   94  A    between atoms: _232  and  _235
REMARK   95  A    between atoms: _235  and  _236
REMARK   96  A    between atoms: _238  and  _240
REMARK   97  A    between atoms: _240  and  _241
REMARK   98  A    between atoms: _240  and  _243
REMARK   99  A    between atoms: _243  and  _244
REMARK  100  A    between atoms: _246  and  _248
REMARK  101  A    between atoms: _248  and  _249
REMARK  102  A    between atoms: _248  and  _251
REMARK  103  A    between atoms: _251  and  _252
REMARK  104  A    between atoms: _252  and  _253
REMARK  105  A    between atoms: _258  and  _260
REMARK  106  A    between atoms: _260  and  _261
REMARK  107  A    between atoms: _260  and  _263
REMARK  108  A    between atoms: _263  and  _264
REMARK  109  A    between atoms: _270  and  _272
REMARK  110  A    between atoms: _272  and  _273
REMARK  111  A    between atoms: _272  and  _275
REMARK  112  A    between atoms: _275  and  _276
REMARK  113  A    between atoms: _279  and  _281
REMARK  114  A    between atoms: _281  and  _282
REMARK  115  A    between atoms: _281  and  _284
REMARK  116  A    between atoms: _284  and  _285
REMARK  117  A    between atoms: _288  and  _290
REMARK  118  A    between atoms: _290  and  _291
REMARK  119  A    between atoms: _294  and  _296
REMARK  120  A    between atoms: _296  and  _297
REMARK  121  A    between atoms: _296  and  _299
REMARK  122  A    between atoms: _299  and  _300
REMARK  123  A    between atoms: _303  and  _305
REMARK  124  A    between atoms: _305  and  _306
REMARK  125  A    between atoms: _305  and  _308
REMARK  126  A    between atoms: _311  and  _313
REMARK  127  A    between atoms: _313  and  _314
REMARK  128  A    between atoms: _313  and  _316
REMARK  129  A    between atoms: _316  and  _317
REMARK  130  A    between atoms: _319  and  _321
REMARK  131  A    between atoms: _321  and  _322
REMARK  132  A    between atoms: _321  and  _324
REMARK  133  A    between atoms: _324  and  _325
REMARK  134  A    between atoms: _325  and  _326
REMARK  135  A    between atoms: _326  and  _327
REMARK  136  A    between atoms: _327  and  _328
REMARK  137  A    between atoms: _333  and  _334
REMARK  138  A    between atoms: _339  and  _341
REMARK  139  A    between atoms: _341  and  _342
REMARK  140  A    between atoms: _341  and  _344
REMARK  141  A    between atoms: _344  and  _345
REMARK  142  A    between atoms: _350  and  _351
REMARK  143  A    between atoms: _353  and  _355
REMARK  144  A    between atoms: _355  and  _356
REMARK  145  A    between atoms: _355  and  _358
REMARK  146  A    between atoms: _358  and  _359
REMARK  147  A    between atoms: _362  and  _364
REMARK  148  A    between atoms: _364  and  _365
REMARK  149  A    between atoms: _364  and  _367
REMARK  150  A    between atoms: _367  and  _368
REMARK  151  A    between atoms: _371  and  _373
REMARK  152  A    between atoms: _373  and  _374
REMARK  153  A    between atoms: _373  and  _376
REMARK  154  A    between atoms: _376  and  _377
REMARK  155  A    between atoms: _380  and  _382
REMARK  156  A    between atoms: _382  and  _383
REMARK  157  A    between atoms: _382  and  _385
REMARK  158  A    between atoms: _385  and  _386
REMARK  159  A    between atoms: _389  and  _391
REMARK  160  A    between atoms: _391  and  _392
REMARK  161  A    between atoms: _391  and  _394
REMARK  162  A    between atoms: _394  and  _395
REMARK  163  A    between atoms: _397  and  _399
REMARK  164  A    between atoms: _399  and  _400
REMARK  165  A    between atoms: _399  and  _402
REMARK  166  A    between atoms: _402  and  _403
REMARK  167  A    between atoms: _408  and  _409
REMARK  168  A    between atoms: _411  and  _413
REMARK  169  A    between atoms: _413  and  _414
REMARK  170  A    between atoms: _413  and  _416
REMARK  171  A    between atoms: _416  and  _417
REMARK  172  A    between atoms: _420  and  _422
REMARK  173  A    between atoms: _422  and  _423
REMARK  174  A    between atoms: _422  and  _425
REMARK  175  A    between atoms: _425  and  _426
REMARK  176  A    between atoms: _431  and  _433
REMARK  177  A    between atoms: _433  and  _434
REMARK  178  A    between atoms: _433  and  _436
REMARK  179  A    between atoms: _436  and  _437
REMARK  180  A    between atoms: _441  and  _442
REMARK  181  A    between atoms: _447  and  _449
REMARK  182  A    between atoms: _449  and  _450
REMARK  183  A    between atoms: _449  and  _452
REMARK  184  A    between atoms: _452  and  _453
REMARK  185  A    between atoms: _456  and  _458
REMARK  186  A    between atoms: _458  and  _459
REMARK  187  A    between atoms: _462  and  _464
REMARK  188  A    between atoms: _464  and  _465
REMARK  189  A    between atoms: _464  and  _467
REMARK  190  A    between atoms: _467  and  _468
REMARK  191  A    between atoms: _468  and  _469
REMARK  192  A    between atoms: _471  and  _473
REMARK  193  A    between atoms: _473  and  _474
REMARK  194  A    between atoms: _473  and  _476
REMARK  195  A    between atoms: _476  and  _477
REMARK  196  A    between atoms: _482  and  _484
REMARK  197  A    between atoms: _484  and  _485
REMARK  198  A    between atoms: _484  and  _487
REMARK  199  A    between atoms: _487  and  _488
REMARK  200  A    between atoms: _498  and  _500
REMARK  201  A    between atoms: _500  and  _501
REMARK  202  A    between atoms: _500  and  _503
REMARK  203  A    between atoms: _506  and  _508
REMARK  204  A    between atoms: _508  and  _509
REMARK  205  A    between atoms: _508  and  _511
REMARK  206  A    between atoms: _511  and  _512
REMARK  207  A    between atoms: _512  and  _513
REMARK  208  A    between atoms: _513  and  _514
REMARK  209  A    between atoms: _514  and  _515
REMARK  210  A    between atoms: _519  and  _521
REMARK  211  A    between atoms: _521  and  _522
REMARK  212  A    between atoms: _521  and  _524
REMARK  213  A    between atoms: _524  and  _525
REMARK  214  A    between atoms: _525  and  _526
REMARK  215  A    between atoms: _529  and  _531
REMARK  216  A    between atoms: _531  and  _532
REMARK  217  A    between atoms: _531  and  _534
REMARK  218  A    between atoms: _534  and  _535
REMARK  219  A    between atoms: _538  and  _540
REMARK  220  A    between atoms: _540  and  _541
REMARK  221  A    between atoms: _540  and  _543
REMARK  222  A    between atoms: _543  and  _544
REMARK  223  A    between atoms: _544  and  _545
REMARK  224  A    between atoms: _545  and  _546
REMARK  225  A    between atoms: _555  and  _557
REMARK  226  A    between atoms: _557  and  _558
REMARK  227  A    between atoms: _557  and  _560
REMARK  228  A    between atoms: _560  and  _561
REMARK  229  A    between atoms: _564  and  _566
REMARK  230  A    between atoms: _566  and  _567
REMARK  231  A    between atoms: _566  and  _569
REMARK  232  A    between atoms: _569  and  _570
REMARK  233  A    between atoms: _575  and  _577
REMARK  234  A    between atoms: _577  and  _578
REMARK  235  A    between atoms: _577  and  _580
REMARK  236  A    between atoms: _580  and  _581
REMARK  237  A    between atoms: _581  and  _582
REMARK  238  A    between atoms: _582  and  _583
REMARK  239  A    between atoms: _592  and  _594
REMARK  240  A    between atoms: _594  and  _595
REMARK  241  A    between atoms: _594  and  _597
REMARK  242  A    between atoms: _597  and  _598
REMARK  243  A    between atoms: _598  and  _599
REMARK  244  A    between atoms: _601  and  _603
REMARK  245  A    between atoms: _603  and  _604
REMARK  246  A    between atoms: _603  and  _606
REMARK  247  A    between atoms: _606  and  _607
REMARK  248  A    between atoms: _607  and  _608
REMARK  249  A    between atoms: _610  and  _612
REMARK  250  A    between atoms: _612  and  _613
REMARK  251  A    between atoms: _612  and  _615
REMARK  252  A    between atoms: _615  and  _616
REMARK  253  A    between atoms: _616  and  _617
REMARK  254  A    between atoms: _617  and  _618
REMARK  255  A    between atoms: _618  and  _619
REMARK  256  A    between atoms: _623  and  _625
REMARK  257  A    between atoms: _625  and  _626
REMARK  258  A    between atoms: _625  and  _628
REMARK  259  A    between atoms: _628  and  _629
REMARK                            x       y       z     vdW  Elec       q    Type
REMARK                         _______ _______ _______ _____ _____    ______ ____
ROOT
ATOM      1  O   HOH     1      55.057  10.916  35.032  0.00  0.00    +0.000 OA
ENDROOT
TORSDOF 0
REMARK  Name = ../refined-set-2016/2pq9/2pq9_pocket.pdb
REMARK  259 active torsions:
REMARK  status: ('A' for Active; 'I' for Inactive)
REMARK    1  A    between atoms: _1  and  _3
REMARK    2  A    between atoms: _3  and  _4
REMARK    3  A    between atoms: _3  and  _6
REMARK    4  A    between atoms: _6  and  _7
REMARK    5  A    between atoms: _9  and  _11
REMARK    6  A    between atoms: _11  and  _12
REMARK    7  A    between atoms: _11  and  _14
REMARK    8  A    between atoms: _14  and  _15
REMARK    9  A    between atoms: _15  and  _16
REMARK   10  A    between atoms: _16  and  _17
REMARK   11  A    between atoms: _17  and  _18
REMARK   12  A    between atoms: _22  and  _24
REMARK   13  A    between atoms: _24  and  _25
REMARK   14  A    between atoms: _24  and  _27
REMARK   15  A    between atoms: _27  and  _28
REMARK   16  A    between atoms: _30  and  _32
REMARK   17  A    between atoms: _32  and  _33
REMARK   18  A    between atoms: _32  and  _35
REMARK   19  A    between atoms: _38  and  _40
REMARK   20  A    between atoms: _40  and  _41
REMARK   21  A    between atoms: _40  and  _43
REMARK   22  A    between atoms: _43  and  _44
REMARK   23  A    between atoms: _46  and  _48
REMARK   24  A    between atoms: _48  and  _49
REMARK   25  A    between atoms: _48  and  _51
REMARK   26  A    between atoms: _51  and  _52
REMARK   27  A    between atoms: _57  and  _59
REMARK   28  A    between atoms: _59  and  _60
REMARK   29  A    between atoms: _59  and  _62
REMARK   30  A    between atoms: _62  and  _63
REMARK   31  A    between atoms: _63  and  _64
REMARK   32  A    between atoms: _64  and  _65
REMARK   33  A    between atoms: _74  and  _76
REMARK   34  A    between atoms: _76  and  _77
REMARK   35  A    between atoms: _76  and  _79
REMARK   36  A    between atoms: _79  and  _80
REMARK   37  A    between atoms: _83  and  _85
REMARK   38  A    between atoms: _85  and  _86
REMARK   39  A    between atoms: _85  and  _88
REMARK   40  A    between atoms: _88  and  _89
REMARK   41  A    between atoms: _92  and  _94
REMARK   42  A    between atoms: _94  and  _95
REMARK   43  A    between atoms: _97  and  _99
REMARK   44  A    between atoms: _99  and  _100
REMARK   45  A    between atoms: _99  and  _102
REMARK   46  A    between atoms: _102  and  _103
REMARK   47  A    between atoms: _108  and  _110
REMARK   48  A    between atoms: _110  and  _111
REMARK   49  A    between atoms: _114  and  _116
REMARK   50  A    between atoms: _116  and  _117
REMARK   51  A    between atoms: _119  and  _121
REMARK   52  A    between atoms: _121  and  _122
REMARK   53  A    between atoms: _121  and  _124
REMARK   54  A    between atoms: _124  and  _125
REMARK   55  A    between atoms: _128  and  _130
REMARK   56  A    between atoms: _130  and  _131
REMARK   57  A    between atoms: _134  and  _136
REMARK   58  A    between atoms: _136  and  _137
REMARK   59  A    between atoms: _136  and  _139
REMARK   60  A    between atoms: _139  and  _140
REMARK   61  A    between atoms: _140  and  _141
REMARK   62  A    between atoms: _143  and  _145
REMARK   63  A    between atoms: _145  and  _146
REMARK   64  A    between atoms: _145  and  _148
REMARK   65  A    between atoms: _148  and  _149
REMARK   66  A    between atoms: _149  and  _150
REMARK   67  A    between atoms: _150  and  _151
REMARK   68  A    between atoms: _161  and  _162
REMARK   69  A    between atoms: _167  and  _169
REMARK   70  A    between atoms: _169  and  _170
REMARK   71  A    between atoms: _169  and  _172
REMARK   72  A    between atoms: _172  and  _173
REMARK   73  A    between atoms: _173  and  _174
REMARK   74  A    between atoms: _174  and  _175
REMARK   75  A    between atoms: _184  and  _186
REMARK   76  A    between atoms: _186  and  _187
REMARK   77  A    between atoms: _186  and  _189
REMARK   78  A    between atoms: _189  and  _190
REMARK   79  A    between atoms: _190  and  _191
REMARK   80  A    between atoms: _193  and  _195
REMARK   81  A    between atoms: _195  and  _196
REMARK   82  A    between atoms: _195  and  _198
REMARK   83  A    between atoms: _198  and  _199
REMARK   84  A    between atoms: _199  and  _200
REMARK   85  A    between atoms: _200  and  _201
REMARK   86  A    between atoms: _211  and  _212
REMARK   87  A    between atoms: _217  and  _219
REMARK   88  A    between atoms: _219  and  _220
REMARK   89  A    between atoms: _222  and  _224
REMARK   90  A    between atoms: _224  and  _225
REMARK   91  A    between atoms: _224  and  _227
REMARK   92  A    between atoms: _230  and  _232
REMARK   93  A    between atoms: _232  and  _233
REMARK   94  A    between atoms: _232  and  _235
REMARK   95  A    between atoms: _235  and  _236
REMARK   96  A    between atoms: _238  and  _240
REMARK   97  A    between atoms: _240  and  _241
REMARK   98  A    between atoms: _240  and  _243
REMARK   99  A    between atoms: _243  and  _244
REMARK  100  A    between atoms: _246  and  _248
REMARK  101  A    between atoms: _248  and  _249
REMARK  102  A    between atoms: _248  and  _251
REMARK  103  A    between atoms: _251  and  _252
REMARK  104  A    between atoms: _252  and  _253
REMARK  105  A    between atoms: _258  and  _260
REMARK  106  A    between atoms: _260  and  _261
REMARK  107  A    between atoms: _260  and  _263
REMARK  108  A    between atoms: _263  and  _264
REMARK  109  A    between atoms: _270  and  _272
REMARK  110  A    between atoms: _272  and  _273
REMARK  111  A    between atoms: _272  and  _275
REMARK  112  A    between atoms: _275  and  _276
REMARK  113  A    between atoms: _279  and  _281
REMARK  114  A    between atoms: _281  and  _282
REMARK  115  A    between atoms: _281  and  _284
REMARK  116  A    between atoms: _284  and  _285
REMARK  117  A    between atoms: _288  and  _290
REMARK  118  A    between atoms: _290  and  _291
REMARK  119  A    between atoms: _294  and  _296
REMARK  120  A    between atoms: _296  and  _297
REMARK  121  A    between atoms: _296  and  _299
REMARK  122  A    between atoms: _299  and  _300
REMARK  123  A    between atoms: _303  and  _305
REMARK  124  A    between atoms: _305  and  _306
REMARK  125  A    between atoms: _305  and  _308
REMARK  126  A    between atoms: _311  and  _313
REMARK  127  A    between atoms: _313  and  _314
REMARK  128  A    between atoms: _313  and  _316
REMARK  129  A    between atoms: _316  and  _317
REMARK  130  A    between atoms: _319  and  _321
REMARK  131  A    between atoms: _321  and  _322
REMARK  132  A    between atoms: _321  and  _324
REMARK  133  A    between atoms: _324  and  _325
REMARK  134  A    between atoms: _325  and  _326
REMARK  135  A    between atoms: _326  and  _327
REMARK  136  A    between atoms: _327  and  _328
REMARK  137  A    between atoms: _333  and  _334
REMARK  138  A    between atoms: _339  and  _341
REMARK  139  A    between atoms: _341  and  _342
REMARK  140  A    between atoms: _341  and  _344
REMARK  141  A    between atoms: _344  and  _345
REMARK  142  A    between atoms: _350  and  _351
REMARK  143  A    between atoms: _353  and  _355
REMARK  144  A    between atoms: _355  and  _356
REMARK  145  A    between atoms: _355  and  _358
REMARK  146  A    between atoms: _358  and  _359
REMARK  147  A    between atoms: _362  and  _364
REMARK  148  A    between atoms: _364  and  _365
REMARK  149  A    between atoms: _364  and  _367
REMARK  150  A    between atoms: _367  and  _368
REMARK  151  A    between atoms: _371  and  _373
REMARK  152  A    between atoms: _373  and  _374
REMARK  153  A    between atoms: _373  and  _376
REMARK  154  A    between atoms: _376  and  _377
REMARK  155  A    between atoms: _380  and  _382
REMARK  156  A    between atoms: _382  and  _383
REMARK  157  A    between atoms: _382  and  _385
REMARK  158  A    between atoms: _385  and  _386
REMARK  159  A    between atoms: _389  and  _391
REMARK  160  A    between atoms: _391  and  _392
REMARK  161  A    between atoms: _391  and  _394
REMARK  162  A    between atoms: _394  and  _395
REMARK  163  A    between atoms: _397  and  _399
REMARK  164  A    between atoms: _399  and  _400
REMARK  165  A    between atoms: _399  and  _402
REMARK  166  A    between atoms: _402  and  _403
REMARK  167  A    between atoms: _408  and  _409
REMARK  168  A    between atoms: _411  and  _413
REMARK  169  A    between atoms: _413  and  _414
REMARK  170  A    between atoms: _413  and  _416
REMARK  171  A    between atoms: _416  and  _417
REMARK  172  A    between atoms: _420  and  _422
REMARK  173  A    between atoms: _422  and  _423
REMARK  174  A    between atoms: _422  and  _425
REMARK  175  A    between atoms: _425  and  _426
REMARK  176  A    between atoms: _431  and  _433
REMARK  177  A    between atoms: _433  and  _434
REMARK  178  A    between atoms: _433  and  _436
REMARK  179  A    between atoms: _436  and  _437
REMARK  180  A    between atoms: _441  and  _442
REMARK  181  A    between atoms: _447  and  _449
REMARK  182  A    between atoms: _449  and  _450
REMARK  183  A    between atoms: _449  and  _452
REMARK  184  A    between atoms: _452  and  _453
REMARK  185  A    between atoms: _456  and  _458
REMARK  186  A    between atoms: _458  and  _459
REMARK  187  A    between atoms: _462  and  _464
REMARK  188  A    between atoms: _464  and  _465
REMARK  189  A    between atoms: _464  and  _467
REMARK  190  A    between atoms: _467  and  _468
REMARK  191  A    between atoms: _468  and  _469
REMARK  192  A    between atoms: _471  and  _473
REMARK  193  A    between atoms: _473  and  _474
REMARK  194  A    between atoms: _473  and  _476
REMARK  195  A    between atoms: _476  and  _477
REMARK  196  A    between atoms: _482  and  _484
REMARK  197  A    between atoms: _484  and  _485
REMARK  198  A    between atoms: _484  and  _487
REMARK  199  A    between atoms: _487  and  _488
REMARK  200  A    between atoms: _498  and  _500
REMARK  201  A    between atoms: _500  and  _501
REMARK  202  A    between atoms: _500  and  _503
REMARK  203  A    between atoms: _506  and  _508
REMARK  204  A    between atoms: _508  and  _509
REMARK  205  A    between atoms: _508  and  _511
REMARK  206  A    between atoms: _511  and  _512
REMARK  207  A    between atoms: _512  and  _513
REMARK  208  A    between atoms: _513  and  _514
REMARK  209  A    between atoms: _514  and  _515
REMARK  210  A    between atoms: _519  and  _521
REMARK  211  A    between atoms: _521  and  _522
REMARK  212  A    between atoms: _521  and  _524
REMARK  213  A    between atoms: _524  and  _525
REMARK  214  A    between atoms: _525  and  _526
REMARK  215  A    between atoms: _529  and  _531
REMARK  216  A    between atoms: _531  and  _532
REMARK  217  A    between atoms: _531  and  _534
REMARK  218  A    between atoms: _534  and  _535
REMARK  219  A    between atoms: _538  and  _540
REMARK  220  A    between atoms: _540  and  _541
REMARK  221  A    between atoms: _540  and  _543
REMARK  222  A    between atoms: _543  and  _544
REMARK  223  A    between atoms: _544  and  _545
REMARK  224  A    between atoms: _545  and  _546
REMARK  225  A    between atoms: _555  and  _557
REMARK  226  A    between atoms: _557  and  _558
REMARK  227  A    between atoms: _557  and  _560
REMARK  228  A    between atoms: _560  and  _561
REMARK  229  A    between atoms: _564  and  _566
REMARK  230  A    between atoms: _566  and  _567
REMARK  231  A    between atoms: _566  and  _569
REMARK  232  A    between atoms: _569  and  _570
REMARK  233  A    between atoms: _575  and  _577
REMARK  234  A    between atoms: _577  and  _578
REMARK  235  A    between atoms: _577  and  _580
REMARK  236  A    between atoms: _580  and  _581
REMARK  237  A    between atoms: _581  and  _582
REMARK  238  A    between atoms: _582  and  _583
REMARK  239  A    between atoms: _592  and  _594
REMARK  240  A    between atoms: _594  and  _595
REMARK  241  A    between atoms: _594  and  _597
REMARK  242  A    between atoms: _597  and  _598
REMARK  243  A    between atoms: _598  and  _599
REMARK  244  A    between atoms: _601  and  _603
REMARK  245  A    between atoms: _603  and  _604
REMARK  246  A    between atoms: _603  and  _606
REMARK  247  A    between atoms: _606  and  _607
REMARK  248  A    between atoms: _607  and  _608
REMARK  249  A    between atoms: _610  and  _612
REMARK  250  A    between atoms: _612  and  _613
REMARK  251  A    between atoms: _612  and  _615
REMARK  252  A    between atoms: _615  and  _616
REMARK  253  A    between atoms: _616  and  _617
REMARK  254  A    between atoms: _617  and  _618
REMARK  255  A    between atoms: _618  and  _619
REMARK  256  A    between atoms: _623  and  _625
REMARK  257  A    between atoms: _625  and  _626
REMARK  258  A    between atoms: _625  and  _628
REMARK  259  A    between atoms: _628  and  _629
REMARK                            x       y       z     vdW  Elec       q    Type
REMARK                         _______ _______ _______ _____ _____    ______ ____
ROOT
ATOM      1  O   HOH     1      54.996   4.307  26.669  0.00  0.00    +0.000 OA
ENDROOT
TORSDOF 0
REMARK  Name = ../refined-set-2016/2pq9/2pq9_pocket.pdb
REMARK  259 active torsions:
REMARK  status: ('A' for Active; 'I' for Inactive)
REMARK    1  A    between atoms: _1  and  _3
REMARK    2  A    between atoms: _3  and  _4
REMARK    3  A    between atoms: _3  and  _6
REMARK    4  A    between atoms: _6  and  _7
REMARK    5  A    between atoms: _9  and  _11
REMARK    6  A    between atoms: _11  and  _12
REMARK    7  A    between atoms: _11  and  _14
REMARK    8  A    between atoms: _14  and  _15
REMARK    9  A    between atoms: _15  and  _16
REMARK   10  A    between atoms: _16  and  _17
REMARK   11  A    between atoms: _17  and  _18
REMARK   12  A    between atoms: _22  and  _24
REMARK   13  A    between atoms: _24  and  _25
REMARK   14  A    between atoms: _24  and  _27
REMARK   15  A    between atoms: _27  and  _28
REMARK   16  A    between atoms: _30  and  _32
REMARK   17  A    between atoms: _32  and  _33
REMARK   18  A    between atoms: _32  and  _35
REMARK   19  A    between atoms: _38  and  _40
REMARK   20  A    between atoms: _40  and  _41
REMARK   21  A    between atoms: _40  and  _43
REMARK   22  A    between atoms: _43  and  _44
REMARK   23  A    between atoms: _46  and  _48
REMARK   24  A    between atoms: _48  and  _49
REMARK   25  A    between atoms: _48  and  _51
REMARK   26  A    between atoms: _51  and  _52
REMARK   27  A    between atoms: _57  and  _59
REMARK   28  A    between atoms: _59  and  _60
REMARK   29  A    between atoms: _59  and  _62
REMARK   30  A    between atoms: _62  and  _63
REMARK   31  A    between atoms: _63  and  _64
REMARK   32  A    between atoms: _64  and  _65
REMARK   33  A    between atoms: _74  and  _76
REMARK   34  A    between atoms: _76  and  _77
REMARK   35  A    between atoms: _76  and  _79
REMARK   36  A    between atoms: _79  and  _80
REMARK   37  A    between atoms: _83  and  _85
REMARK   38  A    between atoms: _85  and  _86
REMARK   39  A    between atoms: _85  and  _88
REMARK   40  A    between atoms: _88  and  _89
REMARK   41  A    between atoms: _92  and  _94
REMARK   42  A    between atoms: _94  and  _95
REMARK   43  A    between atoms: _97  and  _99
REMARK   44  A    between atoms: _99  and  _100
REMARK   45  A    between atoms: _99  and  _102
REMARK   46  A    between atoms: _102  and  _103
REMARK   47  A    between atoms: _108  and  _110
REMARK   48  A    between atoms: _110  and  _111
REMARK   49  A    between atoms: _114  and  _116
REMARK   50  A    between atoms: _116  and  _117
REMARK   51  A    between atoms: _119  and  _121
REMARK   52  A    between atoms: _121  and  _122
REMARK   53  A    between atoms: _121  and  _124
REMARK   54  A    between atoms: _124  and  _125
REMARK   55  A    between atoms: _128  and  _130
REMARK   56  A    between atoms: _130  and  _131
REMARK   57  A    between atoms: _134  and  _136
REMARK   58  A    between atoms: _136  and  _137
REMARK   59  A    between atoms: _136  and  _139
REMARK   60  A    between atoms: _139  and  _140
REMARK   61  A    between atoms: _140  and  _141
REMARK   62  A    between atoms: _143  and  _145
REMARK   63  A    between atoms: _145  and  _146
REMARK   64  A    between atoms: _145  and  _148
REMARK   65  A    between atoms: _148  and  _149
REMARK   66  A    between atoms: _149  and  _150
REMARK   67  A    between atoms: _150  and  _151
REMARK   68  A    between atoms: _161  and  _162
REMARK   69  A    between atoms: _167  and  _169
REMARK   70  A    between atoms: _169  and  _170
REMARK   71  A    between atoms: _169  and  _172
REMARK   72  A    between atoms: _172  and  _173
REMARK   73  A    between atoms: _173  and  _174
REMARK   74  A    between atoms: _174  and  _175
REMARK   75  A    between atoms: _184  and  _186
REMARK   76  A    between atoms: _186  and  _187
REMARK   77  A    between atoms: _186  and  _189
REMARK   78  A    between atoms: _189  and  _190
REMARK   79  A    between atoms: _190  and  _191
REMARK   80  A    between atoms: _193  and  _195
REMARK   81  A    between atoms: _195  and  _196
REMARK   82  A    between atoms: _195  and  _198
REMARK   83  A    between atoms: _198  and  _199
REMARK   84  A    between atoms: _199  and  _200
REMARK   85  A    between atoms: _200  and  _201
REMARK   86  A    between atoms: _211  and  _212
REMARK   87  A    between atoms: _217  and  _219
REMARK   88  A    between atoms: _219  and  _220
REMARK   89  A    between atoms: _222  and  _224
REMARK   90  A    between atoms: _224  and  _225
REMARK   91  A    between atoms: _224  and  _227
REMARK   92  A    between atoms: _230  and  _232
REMARK   93  A    between atoms: _232  and  _233
REMARK   94  A    between atoms: _232  and  _235
REMARK   95  A    between atoms: _235  and  _236
REMARK   96  A    between atoms: _238  and  _240
REMARK   97  A    between atoms: _240  and  _241
REMARK   98  A    between atoms: _240  and  _243
REMARK   99  A    between atoms: _243  and  _244
REMARK  100  A    between atoms: _246  and  _248
REMARK  101  A    between atoms: _248  and  _249
REMARK  102  A    between atoms: _248  and  _251
REMARK  103  A    between atoms: _251  and  _252
REMARK  104  A    between atoms: _252  and  _253
REMARK  105  A    between atoms: _258  and  _260
REMARK  106  A    between atoms: _260  and  _261
REMARK  107  A    between atoms: _260  and  _263
REMARK  108  A    between atoms: _263  and  _264
REMARK  109  A    between atoms: _270  and  _272
REMARK  110  A    between atoms: _272  and  _273
REMARK  111  A    between atoms: _272  and  _275
REMARK  112  A    between atoms: _275  and  _276
REMARK  113  A    between atoms: _279  and  _281
REMARK  114  A    between atoms: _281  and  _282
REMARK  115  A    between atoms: _281  and  _284
REMARK  116  A    between atoms: _284  and  _285
REMARK  117  A    between atoms: _288  and  _290
REMARK  118  A    between atoms: _290  and  _291
REMARK  119  A    between atoms: _294  and  _296
REMARK  120  A    between atoms: _296  and  _297
REMARK  121  A    between atoms: _296  and  _299
REMARK  122  A    between atoms: _299  and  _300
REMARK  123  A    between atoms: _303  and  _305
REMARK  124  A    between atoms: _305  and  _306
REMARK  125  A    between atoms: _305  and  _308
REMARK  126  A    between atoms: _311  and  _313
REMARK  127  A    between atoms: _313  and  _314
REMARK  128  A    between atoms: _313  and  _316
REMARK  129  A    between atoms: _316  and  _317
REMARK  130  A    between atoms: _319  and  _321
REMARK  131  A    between atoms: _321  and  _322
REMARK  132  A    between atoms: _321  and  _324
REMARK  133  A    between atoms: _324  and  _325
REMARK  134  A    between atoms: _325  and  _326
REMARK  135  A    between atoms: _326  and  _327
REMARK  136  A    between atoms: _327  and  _328
REMARK  137  A    between atoms: _333  and  _334
REMARK  138  A    between atoms: _339  and  _341
REMARK  139  A    between atoms: _341  and  _342
REMARK  140  A    between atoms: _341  and  _344
REMARK  141  A    between atoms: _344  and  _345
REMARK  142  A    between atoms: _350  and  _351
REMARK  143  A    between atoms: _353  and  _355
REMARK  144  A    between atoms: _355  and  _356
REMARK  145  A    between atoms: _355  and  _358
REMARK  146  A    between atoms: _358  and  _359
REMARK  147  A    between atoms: _362  and  _364
REMARK  148  A    between atoms: _364  and  _365
REMARK  149  A    between atoms: _364  and  _367
REMARK  150  A    between atoms: _367  and  _368
REMARK  151  A    between atoms: _371  and  _373
REMARK  152  A    between atoms: _373  and  _374
REMARK  153  A    between atoms: _373  and  _376
REMARK  154  A    between atoms: _376  and  _377
REMARK  155  A    between atoms: _380  and  _382
REMARK  156  A    between atoms: _382  and  _383
REMARK  157  A    between atoms: _382  and  _385
REMARK  158  A    between atoms: _385  and  _386
REMARK  159  A    between atoms: _389  and  _391
REMARK  160  A    between atoms: _391  and  _392
REMARK  161  A    between atoms: _391  and  _394
REMARK  162  A    between atoms: _394  and  _395
REMARK  163  A    between atoms: _397  and  _399
REMARK  164  A    between atoms: _399  and  _400
REMARK  165  A    between atoms: _399  and  _402
REMARK  166  A    between atoms: _402  and  _403
REMARK  167  A    between atoms: _408  and  _409
REMARK  168  A    between atoms: _411  and  _413
REMARK  169  A    between atoms: _413  and  _414
REMARK  170  A    between atoms: _413  and  _416
REMARK  171  A    between atoms: _416  and  _417
REMARK  172  A    between atoms: _420  and  _422
REMARK  173  A    between atoms: _422  and  _423
REMARK  174  A    between atoms: _422  and  _425
REMARK  175  A    between atoms: _425  and  _426
REMARK  176  A    between atoms: _431  and  _433
REMARK  177  A    between atoms: _433  and  _434
REMARK  178  A    between atoms: _433  and  _436
REMARK  179  A    between atoms: _436  and  _437
REMARK  180  A    between atoms: _441  and  _442
REMARK  181  A    between atoms: _447  and  _449
REMARK  182  A    between atoms: _449  and  _450
REMARK  183  A    between atoms: _449  and  _452
REMARK  184  A    between atoms: _452  and  _453
REMARK  185  A    between atoms: _456  and  _458
REMARK  186  A    between atoms: _458  and  _459
REMARK  187  A    between atoms: _462  and  _464
REMARK  188  A    between atoms: _464  and  _465
REMARK  189  A    between atoms: _464  and  _467
REMARK  190  A    between atoms: _467  and  _468
REMARK  191  A    between atoms: _468  and  _469
REMARK  192  A    between atoms: _471  and  _473
REMARK  193  A    between atoms: _473  and  _474
REMARK  194  A    between atoms: _473  and  _476
REMARK  195  A    between atoms: _476  and  _477
REMARK  196  A    between atoms: _482  and  _484
REMARK  197  A    between atoms: _484  and  _485
REMARK  198  A    between atoms: _484  and  _487
REMARK  199  A    between atoms: _487  and  _488
REMARK  200  A    between atoms: _498  and  _500
REMARK  201  A    between atoms: _500  and  _501
REMARK  202  A    between atoms: _500  and  _503
REMARK  203  A    between atoms: _506  and  _508
REMARK  204  A    between atoms: _508  and  _509
REMARK  205  A    between atoms: _508  and  _511
REMARK  206  A    between atoms: _511  and  _512
REMARK  207  A    between atoms: _512  and  _513
REMARK  208  A    between atoms: _513  and  _514
REMARK  209  A    between atoms: _514  and  _515
REMARK  210  A    between atoms: _519  and  _521
REMARK  211  A    between atoms: _521  and  _522
REMARK  212  A    between atoms: _521  and  _524
REMARK  213  A    between atoms: _524  and  _525
REMARK  214  A    between atoms: _525  and  _526
REMARK  215  A    between atoms: _529  and  _531
REMARK  216  A    between atoms: _531  and  _532
REMARK  217  A    between atoms: _531  and  _534
REMARK  218  A    between atoms: _534  and  _535
REMARK  219  A    between atoms: _538  and  _540
REMARK  220  A    between atoms: _540  and  _541
REMARK  221  A    between atoms: _540  and  _543
REMARK  222  A    between atoms: _543  and  _544
REMARK  223  A    between atoms: _544  and  _545
REMARK  224  A    between atoms: _545  and  _546
REMARK  225  A    between atoms: _555  and  _557
REMARK  226  A    between atoms: _557  and  _558
REMARK  227  A    between atoms: _557  and  _560
REMARK  228  A    between atoms: _560  and  _561
REMARK  229  A    between atoms: _564  and  _566
REMARK  230  A    between atoms: _566  and  _567
REMARK  231  A    between atoms: _566  and  _569
REMARK  232  A    between atoms: _569  and  _570
REMARK  233  A    between atoms: _575  and  _577
REMARK  234  A    between atoms: _577  and  _578
REMARK  235  A    between atoms: _577  and  _580
REMARK  236  A    between atoms: _580  and  _581
REMARK  237  A    between atoms: _581  and  _582
REMARK  238  A    between atoms: _582  and  _583
REMARK  239  A    between atoms: _592  and  _594
REMARK  240  A    between atoms: _594  and  _595
REMARK  241  A    between atoms: _594  and  _597
REMARK  242  A    between atoms: _597  and  _598
REMARK  243  A    between atoms: _598  and  _599
REMARK  244  A    between atoms: _601  and  _603
REMARK  245  A    between atoms: _603  and  _604
REMARK  246  A    between atoms: _603  and  _606
REMARK  247  A    between atoms: _606  and  _607
REMARK  248  A    between atoms: _607  and  _608
REMARK  249  A    between atoms: _610  and  _612
REMARK  250  A    between atoms: _612  and  _613
REMARK  251  A    between atoms: _612  and  _615
REMARK  252  A    between atoms: _615  and  _616
REMARK  253  A    between atoms: _616  and  _617
REMARK  254  A    between atoms: _617  and  _618
REMARK  255  A    between atoms: _618  and  _619
REMARK  256  A    between atoms: _623  and  _625
REMARK  257  A    between atoms: _625  and  _626
REMARK  258  A    between atoms: _625  and  _628
REMARK  259  A    between atoms: _628  and  _629
REMARK                            x       y       z     vdW  Elec       q    Type
REMARK                         _______ _______ _______ _____ _____    ______ ____
ROOT
ATOM      1  O   HOH     1      57.261   5.420  33.841  0.00  0.00    +0.000 OA
ENDROOT
TORSDOF 0
REMARK  Name = ../refined-set-2016/2pq9/2pq9_pocket.pdb
REMARK  259 active torsions:
REMARK  status: ('A' for Active; 'I' for Inactive)
REMARK    1  A    between atoms: _1  and  _3
REMARK    2  A    between atoms: _3  and  _4
REMARK    3  A    between atoms: _3  and  _6
REMARK    4  A    between atoms: _6  and  _7
REMARK    5  A    between atoms: _9  and  _11
REMARK    6  A    between atoms: _11  and  _12
REMARK    7  A    between atoms: _11  and  _14
REMARK    8  A    between atoms: _14  and  _15
REMARK    9  A    between atoms: _15  and  _16
REMARK   10  A    between atoms: _16  and  _17
REMARK   11  A    between atoms: _17  and  _18
REMARK   12  A    between atoms: _22  and  _24
REMARK   13  A    between atoms: _24  and  _25
REMARK   14  A    between atoms: _24  and  _27
REMARK   15  A    between atoms: _27  and  _28
REMARK   16  A    between atoms: _30  and  _32
REMARK   17  A    between atoms: _32  and  _33
REMARK   18  A    between atoms: _32  and  _35
REMARK   19  A    between atoms: _38  and  _40
REMARK   20  A    between atoms: _40  and  _41
REMARK   21  A    between atoms: _40  and  _43
REMARK   22  A    between atoms: _43  and  _44
REMARK   23  A    between atoms: _46  and  _48
REMARK   24  A    between atoms: _48  and  _49
REMARK   25  A    between atoms: _48  and  _51
REMARK   26  A    between atoms: _51  and  _52
REMARK   27  A    between atoms: _57  and  _59
REMARK   28  A    between atoms: _59  and  _60
REMARK   29  A    between atoms: _59  and  _62
REMARK   30  A    between atoms: _62  and  _63
REMARK   31  A    between atoms: _63  and  _64
REMARK   32  A    between atoms: _64  and  _65
REMARK   33  A    between atoms: _74  and  _76
REMARK   34  A    between atoms: _76  and  _77
REMARK   35  A    between atoms: _76  and  _79
REMARK   36  A    between atoms: _79  and  _80
REMARK   37  A    between atoms: _83  and  _85
REMARK   38  A    between atoms: _85  and  _86
REMARK   39  A    between atoms: _85  and  _88
REMARK   40  A    between atoms: _88  and  _89
REMARK   41  A    between atoms: _92  and  _94
REMARK   42  A    between atoms: _94  and  _95
REMARK   43  A    between atoms: _97  and  _99
REMARK   44  A    between atoms: _99  and  _100
REMARK   45  A    between atoms: _99  and  _102
REMARK   46  A    between atoms: _102  and  _103
REMARK   47  A    between atoms: _108  and  _110
REMARK   48  A    between atoms: _110  and  _111
REMARK   49  A    between atoms: _114  and  _116
REMARK   50  A    between atoms: _116  and  _117
REMARK   51  A    between atoms: _119  and  _121
REMARK   52  A    between atoms: _121  and  _122
REMARK   53  A    between atoms: _121  and  _124
REMARK   54  A    between atoms: _124  and  _125
REMARK   55  A    between atoms: _128  and  _130
REMARK   56  A    between atoms: _130  and  _131
REMARK   57  A    between atoms: _134  and  _136
REMARK   58  A    between atoms: _136  and  _137
REMARK   59  A    between atoms: _136  and  _139
REMARK   60  A    between atoms: _139  and  _140
REMARK   61  A    between atoms: _140  and  _141
REMARK   62  A    between atoms: _143  and  _145
REMARK   63  A    between atoms: _145  and  _146
REMARK   64  A    between atoms: _145  and  _148
REMARK   65  A    between atoms: _148  and  _149
REMARK   66  A    between atoms: _149  and  _150
REMARK   67  A    between atoms: _150  and  _151
REMARK   68  A    between atoms: _161  and  _162
REMARK   69  A    between atoms: _167  and  _169
REMARK   70  A    between atoms: _169  and  _170
REMARK   71  A    between atoms: _169  and  _172
REMARK   72  A    between atoms: _172  and  _173
REMARK   73  A    between atoms: _173  and  _174
REMARK   74  A    between atoms: _174  and  _175
REMARK   75  A    between atoms: _184  and  _186
REMARK   76  A    between atoms: _186  and  _187
REMARK   77  A    between atoms: _186  and  _189
REMARK   78  A    between atoms: _189  and  _190
REMARK   79  A    between atoms: _190  and  _191
REMARK   80  A    between atoms: _193  and  _195
REMARK   81  A    between atoms: _195  and  _196
REMARK   82  A    between atoms: _195  and  _198
REMARK   83  A    between atoms: _198  and  _199
REMARK   84  A    between atoms: _199  and  _200
REMARK   85  A    between atoms: _200  and  _201
REMARK   86  A    between atoms: _211  and  _212
REMARK   87  A    between atoms: _217  and  _219
REMARK   88  A    between atoms: _219  and  _220
REMARK   89  A    between atoms: _222  and  _224
REMARK   90  A    between atoms: _224  and  _225
REMARK   91  A    between atoms: _224  and  _227
REMARK   92  A    between atoms: _230  and  _232
REMARK   93  A    between atoms: _232  and  _233
REMARK   94  A    between atoms: _232  and  _235
REMARK   95  A    between atoms: _235  and  _236
REMARK   96  A    between atoms: _238  and  _240
REMARK   97  A    between atoms: _240  and  _241
REMARK   98  A    between atoms: _240  and  _243
REMARK   99  A    between atoms: _243  and  _244
REMARK  100  A    between atoms: _246  and  _248
REMARK  101  A    between atoms: _248  and  _249
REMARK  102  A    between atoms: _248  and  _251
REMARK  103  A    between atoms: _251  and  _252
REMARK  104  A    between atoms: _252  and  _253
REMARK  105  A    between atoms: _258  and  _260
REMARK  106  A    between atoms: _260  and  _261
REMARK  107  A    between atoms: _260  and  _263
REMARK  108  A    between atoms: _263  and  _264
REMARK  109  A    between atoms: _270  and  _272
REMARK  110  A    between atoms: _272  and  _273
REMARK  111  A    between atoms: _272  and  _275
REMARK  112  A    between atoms: _275  and  _276
REMARK  113  A    between atoms: _279  and  _281
REMARK  114  A    between atoms: _281  and  _282
REMARK  115  A    between atoms: _281  and  _284
REMARK  116  A    between atoms: _284  and  _285
REMARK  117  A    between atoms: _288  and  _290
REMARK  118  A    between atoms: _290  and  _291
REMARK  119  A    between atoms: _294  and  _296
REMARK  120  A    between atoms: _296  and  _297
REMARK  121  A    between atoms: _296  and  _299
REMARK  122  A    between atoms: _299  and  _300
REMARK  123  A    between atoms: _303  and  _305
REMARK  124  A    between atoms: _305  and  _306
REMARK  125  A    between atoms: _305  and  _308
REMARK  126  A    between atoms: _311  and  _313
REMARK  127  A    between atoms: _313  and  _314
REMARK  128  A    between atoms: _313  and  _316
REMARK  129  A    between atoms: _316  and  _317
REMARK  130  A    between atoms: _319  and  _321
REMARK  131  A    between atoms: _321  and  _322
REMARK  132  A    between atoms: _321  and  _324
REMARK  133  A    between atoms: _324  and  _325
REMARK  134  A    between atoms: _325  and  _326
REMARK  135  A    between atoms: _326  and  _327
REMARK  136  A    between atoms: _327  and  _328
REMARK  137  A    between atoms: _333  and  _334
REMARK  138  A    between atoms: _339  and  _341
REMARK  139  A    between atoms: _341  and  _342
REMARK  140  A    between atoms: _341  and  _344
REMARK  141  A    between atoms: _344  and  _345
REMARK  142  A    between atoms: _350  and  _351
REMARK  143  A    between atoms: _353  and  _355
REMARK  144  A    between atoms: _355  and  _356
REMARK  145  A    between atoms: _355  and  _358
REMARK  146  A    between atoms: _358  and  _359
REMARK  147  A    between atoms: _362  and  _364
REMARK  148  A    between atoms: _364  and  _365
REMARK  149  A    between atoms: _364  and  _367
REMARK  150  A    between atoms: _367  and  _368
REMARK  151  A    between atoms: _371  and  _373
REMARK  152  A    between atoms: _373  and  _374
REMARK  153  A    between atoms: _373  and  _376
REMARK  154  A    between atoms: _376  and  _377
REMARK  155  A    between atoms: _380  and  _382
REMARK  156  A    between atoms: _382  and  _383
REMARK  157  A    between atoms: _382  and  _385
REMARK  158  A    between atoms: _385  and  _386
REMARK  159  A    between atoms: _389  and  _391
REMARK  160  A    between atoms: _391  and  _392
REMARK  161  A    between atoms: _391  and  _394
REMARK  162  A    between atoms: _394  and  _395
REMARK  163  A    between atoms: _397  and  _399
REMARK  164  A    between atoms: _399  and  _400
REMARK  165  A    between atoms: _399  and  _402
REMARK  166  A    between atoms: _402  and  _403
REMARK  167  A    between atoms: _408  and  _409
REMARK  168  A    between atoms: _411  and  _413
REMARK  169  A    between atoms: _413  and  _414
REMARK  170  A    between atoms: _413  and  _416
REMARK  171  A    between atoms: _416  and  _417
REMARK  172  A    between atoms: _420  and  _422
REMARK  173  A    between atoms: _422  and  _423
REMARK  174  A    between atoms: _422  and  _425
REMARK  175  A    between atoms: _425  and  _426
REMARK  176  A    between atoms: _431  and  _433
REMARK  177  A    between atoms: _433  and  _434
REMARK  178  A    between atoms: _433  and  _436
REMARK  179  A    between atoms: _436  and  _437
REMARK  180  A    between atoms: _441  and  _442
REMARK  181  A    between atoms: _447  and  _449
REMARK  182  A    between atoms: _449  and  _450
REMARK  183  A    between atoms: _449  and  _452
REMARK  184  A    between atoms: _452  and  _453
REMARK  185  A    between atoms: _456  and  _458
REMARK  186  A    between atoms: _458  and  _459
REMARK  187  A    between atoms: _462  and  _464
REMARK  188  A    between atoms: _464  and  _465
REMARK  189  A    between atoms: _464  and  _467
REMARK  190  A    between atoms: _467  and  _468
REMARK  191  A    between atoms: _468  and  _469
REMARK  192  A    between atoms: _471  and  _473
REMARK  193  A    between atoms: _473  and  _474
REMARK  194  A    between atoms: _473  and  _476
REMARK  195  A    between atoms: _476  and  _477
REMARK  196  A    between atoms: _482  and  _484
REMARK  197  A    between atoms: _484  and  _485
REMARK  198  A    between atoms: _484  and  _487
REMARK  199  A    between atoms: _487  and  _488
REMARK  200  A    between atoms: _498  and  _500
REMARK  201  A    between atoms: _500  and  _501
REMARK  202  A    between atoms: _500  and  _503
REMARK  203  A    between atoms: _506  and  _508
REMARK  204  A    between atoms: _508  and  _509
REMARK  205  A    between atoms: _508  and  _511
REMARK  206  A    between atoms: _511  and  _512
REMARK  207  A    between atoms: _512  and  _513
REMARK  208  A    between atoms: _513  and  _514
REMARK  209  A    between atoms: _514  and  _515
REMARK  210  A    between atoms: _519  and  _521
REMARK  211  A    between atoms: _521  and  _522
REMARK  212  A    between atoms: _521  and  _524
REMARK  213  A    between atoms: _524  and  _525
REMARK  214  A    between atoms: _525  and  _526
REMARK  215  A    between atoms: _529  and  _531
REMARK  216  A    between atoms: _531  and  _532
REMARK  217  A    between atoms: _531  and  _534
REMARK  218  A    between atoms: _534  and  _535
REMARK  219  A    between atoms: _538  and  _540
REMARK  220  A    between atoms: _540  and  _541
REMARK  221  A    between atoms: _540  and  _543
REMARK  222  A    between atoms: _543  and  _544
REMARK  223  A    between atoms: _544  and  _545
REMARK  224  A    between atoms: _545  and  _546
REMARK  225  A    between atoms: _555  and  _557
REMARK  226  A    between atoms: _557  and  _558
REMARK  227  A    between atoms: _557  and  _560
REMARK  228  A    between atoms: _560  and  _561
REMARK  229  A    between atoms: _564  and  _566
REMARK  230  A    between atoms: _566  and  _567
REMARK  231  A    between atoms: _566  and  _569
REMARK  232  A    between atoms: _569  and  _570
REMARK  233  A    between atoms: _575  and  _577
REMARK  234  A    between atoms: _577  and  _578
REMARK  235  A    between atoms: _577  and  _580
REMARK  236  A    between atoms: _580  and  _581
REMARK  237  A    between atoms: _581  and  _582
REMARK  238  A    between atoms: _582  and  _583
REMARK  239  A    between atoms: _592  and  _594
REMARK  240  A    between atoms: _594  and  _595
REMARK  241  A    between atoms: _594  and  _597
REMARK  242  A    between atoms: _597  and  _598
REMARK  243  A    between atoms: _598  and  _599
REMARK  244  A    between atoms: _601  and  _603
REMARK  245  A    between atoms: _603  and  _604
REMARK  246  A    between atoms: _603  and  _606
REMARK  247  A    between atoms: _606  and  _607
REMARK  248  A    between atoms: _607  and  _608
REMARK  249  A    between atoms: _610  and  _612
REMARK  250  A    between atoms: _612  and  _613
REMARK  251  A    between atoms: _612  and  _615
REMARK  252  A    between atoms: _615  and  _616
REMARK  253  A    between atoms: _616  and  _617
REMARK  254  A    between atoms: _617  and  _618
REMARK  255  A    between atoms: _618  and  _619
REMARK  256  A    between atoms: _623  and  _625
REMARK  257  A    between atoms: _625  and  _626
REMARK  258  A    between atoms: _625  and  _628
REMARK  259  A    between atoms: _628  and  _629
REMARK                            x       y       z     vdW  Elec       q    Type
REMARK                         _______ _______ _______ _____ _____    ______ ____
ROOT
ATOM      1  O   HOH     1      52.874  15.250  32.811  0.00  0.00    +0.000 OA
ENDROOT
TORSDOF 0
REMARK  Name = ../refined-set-2016/2pq9/2pq9_pocket.pdb
REMARK  259 active torsions:
REMARK  status: ('A' for Active; 'I' for Inactive)
REMARK    1  A    between atoms: _1  and  _3
REMARK    2  A    between atoms: _3  and  _4
REMARK    3  A    between atoms: _3  and  _6
REMARK    4  A    between atoms: _6  and  _7
REMARK    5  A    between atoms: _9  and  _11
REMARK    6  A    between atoms: _11  and  _12
REMARK    7  A    between atoms: _11  and  _14
REMARK    8  A    between atoms: _14  and  _15
REMARK    9  A    between atoms: _15  and  _16
REMARK   10  A    between atoms: _16  and  _17
REMARK   11  A    between atoms: _17  and  _18
REMARK   12  A    between atoms: _22  and  _24
REMARK   13  A    between atoms: _24  and  _25
REMARK   14  A    between atoms: _24  and  _27
REMARK   15  A    between atoms: _27  and  _28
REMARK   16  A    between atoms: _30  and  _32
REMARK   17  A    between atoms: _32  and  _33
REMARK   18  A    between atoms: _32  and  _35
REMARK   19  A    between atoms: _38  and  _40
REMARK   20  A    between atoms: _40  and  _41
REMARK   21  A    between atoms: _40  and  _43
REMARK   22  A    between atoms: _43  and  _44
REMARK   23  A    between atoms: _46  and  _48
REMARK   24  A    between atoms: _48  and  _49
REMARK   25  A    between atoms: _48  and  _51
REMARK   26  A    between atoms: _51  and  _52
REMARK   27  A    between atoms: _57  and  _59
REMARK   28  A    between atoms: _59  and  _60
REMARK   29  A    between atoms: _59  and  _62
REMARK   30  A    between atoms: _62  and  _63
REMARK   31  A    between atoms: _63  and  _64
REMARK   32  A    between atoms: _64  and  _65
REMARK   33  A    between atoms: _74  and  _76
REMARK   34  A    between atoms: _76  and  _77
REMARK   35  A    between atoms: _76  and  _79
REMARK   36  A    between atoms: _79  and  _80
REMARK   37  A    between atoms: _83  and  _85
REMARK   38  A    between atoms: _85  and  _86
REMARK   39  A    between atoms: _85  and  _88
REMARK   40  A    between atoms: _88  and  _89
REMARK   41  A    between atoms: _92  and  _94
REMARK   42  A    between atoms: _94  and  _95
REMARK   43  A    between atoms: _97  and  _99
REMARK   44  A    between atoms: _99  and  _100
REMARK   45  A    between atoms: _99  and  _102
REMARK   46  A    between atoms: _102  and  _103
REMARK   47  A    between atoms: _108  and  _110
REMARK   48  A    between atoms: _110  and  _111
REMARK   49  A    between atoms: _114  and  _116
REMARK   50  A    between atoms: _116  and  _117
REMARK   51  A    between atoms: _119  and  _121
REMARK   52  A    between atoms: _121  and  _122
REMARK   53  A    between atoms: _121  and  _124
REMARK   54  A    between atoms: _124  and  _125
REMARK   55  A    between atoms: _128  and  _130
REMARK   56  A    between atoms: _130  and  _131
REMARK   57  A    between atoms: _134  and  _136
REMARK   58  A    between atoms: _136  and  _137
REMARK   59  A    between atoms: _136  and  _139
REMARK   60  A    between atoms: _139  and  _140
REMARK   61  A    between atoms: _140  and  _141
REMARK   62  A    between atoms: _143  and  _145
REMARK   63  A    between atoms: _145  and  _146
REMARK   64  A    between atoms: _145  and  _148
REMARK   65  A    between atoms: _148  and  _149
REMARK   66  A    between atoms: _149  and  _150
REMARK   67  A    between atoms: _150  and  _151
REMARK   68  A    between atoms: _161  and  _162
REMARK   69  A    between atoms: _167  and  _169
REMARK   70  A    between atoms: _169  and  _170
REMARK   71  A    between atoms: _169  and  _172
REMARK   72  A    between atoms: _172  and  _173
REMARK   73  A    between atoms: _173  and  _174
REMARK   74  A    between atoms: _174  and  _175
REMARK   75  A    between atoms: _184  and  _186
REMARK   76  A    between atoms: _186  and  _187
REMARK   77  A    between atoms: _186  and  _189
REMARK   78  A    between atoms: _189  and  _190
REMARK   79  A    between atoms: _190  and  _191
REMARK   80  A    between atoms: _193  and  _195
REMARK   81  A    between atoms: _195  and  _196
REMARK   82  A    between atoms: _195  and  _198
REMARK   83  A    between atoms: _198  and  _199
REMARK   84  A    between atoms: _199  and  _200
REMARK   85  A    between atoms: _200  and  _201
REMARK   86  A    between atoms: _211  and  _212
REMARK   87  A    between atoms: _217  and  _219
REMARK   88  A    between atoms: _219  and  _220
REMARK   89  A    between atoms: _222  and  _224
REMARK   90  A    between atoms: _224  and  _225
REMARK   91  A    between atoms: _224  and  _227
REMARK   92  A    between atoms: _230  and  _232
REMARK   93  A    between atoms: _232  and  _233
REMARK   94  A    between atoms: _232  and  _235
REMARK   95  A    between atoms: _235  and  _236
REMARK   96  A    between atoms: _238  and  _240
REMARK   97  A    between atoms: _240  and  _241
REMARK   98  A    between atoms: _240  and  _243
REMARK   99  A    between atoms: _243  and  _244
REMARK  100  A    between atoms: _246  and  _248
REMARK  101  A    between atoms: _248  and  _249
REMARK  102  A    between atoms: _248  and  _251
REMARK  103  A    between atoms: _251  and  _252
REMARK  104  A    between atoms: _252  and  _253
REMARK  105  A    between atoms: _258  and  _260
REMARK  106  A    between atoms: _260  and  _261
REMARK  107  A    between atoms: _260  and  _263
REMARK  108  A    between atoms: _263  and  _264
REMARK  109  A    between atoms: _270  and  _272
REMARK  110  A    between atoms: _272  and  _273
REMARK  111  A    between atoms: _272  and  _275
REMARK  112  A    between atoms: _275  and  _276
REMARK  113  A    between atoms: _279  and  _281
REMARK  114  A    between atoms: _281  and  _282
REMARK  115  A    between atoms: _281  and  _284
REMARK  116  A    between atoms: _284  and  _285
REMARK  117  A    between atoms: _288  and  _290
REMARK  118  A    between atoms: _290  and  _291
REMARK  119  A    between atoms: _294  and  _296
REMARK  120  A    between atoms: _296  and  _297
REMARK  121  A    between atoms: _296  and  _299
REMARK  122  A    between atoms: _299  and  _300
REMARK  123  A    between atoms: _303  and  _305
REMARK  124  A    between atoms: _305  and  _306
REMARK  125  A    between atoms: _305  and  _308
REMARK  126  A    between atoms: _311  and  _313
REMARK  127  A    between atoms: _313  and  _314
REMARK  128  A    between atoms: _313  and  _316
REMARK  129  A    between atoms: _316  and  _317
REMARK  130  A    between atoms: _319  and  _321
REMARK  131  A    between atoms: _321  and  _322
REMARK  132  A    between atoms: _321  and  _324
REMARK  133  A    between atoms: _324  and  _325
REMARK  134  A    between atoms: _325  and  _326
REMARK  135  A    between atoms: _326  and  _327
REMARK  136  A    between atoms: _327  and  _328
REMARK  137  A    between atoms: _333  and  _334
REMARK  138  A    between atoms: _339  and  _341
REMARK  139  A    between atoms: _341  and  _342
REMARK  140  A    between atoms: _341  and  _344
REMARK  141  A    between atoms: _344  and  _345
REMARK  142  A    between atoms: _350  and  _351
REMARK  143  A    between atoms: _353  and  _355
REMARK  144  A    between atoms: _355  and  _356
REMARK  145  A    between atoms: _355  and  _358
REMARK  146  A    between atoms: _358  and  _359
REMARK  147  A    between atoms: _362  and  _364
REMARK  148  A    between atoms: _364  and  _365
REMARK  149  A    between atoms: _364  and  _367
REMARK  150  A    between atoms: _367  and  _368
REMARK  151  A    between atoms: _371  and  _373
REMARK  152  A    between atoms: _373  and  _374
REMARK  153  A    between atoms: _373  and  _376
REMARK  154  A    between atoms: _376  and  _377
REMARK  155  A    between atoms: _380  and  _382
REMARK  156  A    between atoms: _382  and  _383
REMARK  157  A    between atoms: _382  and  _385
REMARK  158  A    between atoms: _385  and  _386
REMARK  159  A    between atoms: _389  and  _391
REMARK  160  A    between atoms: _391  and  _392
REMARK  161  A    between atoms: _391  and  _394
REMARK  162  A    between atoms: _394  and  _395
REMARK  163  A    between atoms: _397  and  _399
REMARK  164  A    between atoms: _399  and  _400
REMARK  165  A    between atoms: _399  and  _402
REMARK  166  A    between atoms: _402  and  _403
REMARK  167  A    between atoms: _408  and  _409
REMARK  168  A    between atoms: _411  and  _413
REMARK  169  A    between atoms: _413  and  _414
REMARK  170  A    between atoms: _413  and  _416
REMARK  171  A    between atoms: _416  and  _417
REMARK  172  A    between atoms: _420  and  _422
REMARK  173  A    between atoms: _422  and  _423
REMARK  174  A    between atoms: _422  and  _425
REMARK  175  A    between atoms: _425  and  _426
REMARK  176  A    between atoms: _431  and  _433
REMARK  177  A    between atoms: _433  and  _434
REMARK  178  A    between atoms: _433  and  _436
REMARK  179  A    between atoms: _436  and  _437
REMARK  180  A    between atoms: _441  and  _442
REMARK  181  A    between atoms: _447  and  _449
REMARK  182  A    between atoms: _449  and  _450
REMARK  183  A    between atoms: _449  and  _452
REMARK  184  A    between atoms: _452  and  _453
REMARK  185  A    between atoms: _456  and  _458
REMARK  186  A    between atoms: _458  and  _459
REMARK  187  A    between atoms: _462  and  _464
REMARK  188  A    between atoms: _464  and  _465
REMARK  189  A    between atoms: _464  and  _467
REMARK  190  A    between atoms: _467  and  _468
REMARK  191  A    between atoms: _468  and  _469
REMARK  192  A    between atoms: _471  and  _473
REMARK  193  A    between atoms: _473  and  _474
REMARK  194  A    between atoms: _473  and  _476
REMARK  195  A    between atoms: _476  and  _477
REMARK  196  A    between atoms: _482  and  _484
REMARK  197  A    between atoms: _484  and  _485
REMARK  198  A    between atoms: _484  and  _487
REMARK  199  A    between atoms: _487  and  _488
REMARK  200  A    between atoms: _498  and  _500
REMARK  201  A    between atoms: _500  and  _501
REMARK  202  A    between atoms: _500  and  _503
REMARK  203  A    between atoms: _506  and  _508
REMARK  204  A    between atoms: _508  and  _509
REMARK  205  A    between atoms: _508  and  _511
REMARK  206  A    between atoms: _511  and  _512
REMARK  207  A    between atoms: _512  and  _513
REMARK  208  A    between atoms: _513  and  _514
REMARK  209  A    between atoms: _514  and  _515
REMARK  210  A    between atoms: _519  and  _521
REMARK  211  A    between atoms: _521  and  _522
REMARK  212  A    between atoms: _521  and  _524
REMARK  213  A    between atoms: _524  and  _525
REMARK  214  A    between atoms: _525  and  _526
REMARK  215  A    between atoms: _529  and  _531
REMARK  216  A    between atoms: _531  and  _532
REMARK  217  A    between atoms: _531  and  _534
REMARK  218  A    between atoms: _534  and  _535
REMARK  219  A    between atoms: _538  and  _540
REMARK  220  A    between atoms: _540  and  _541
REMARK  221  A    between atoms: _540  and  _543
REMARK  222  A    between atoms: _543  and  _544
REMARK  223  A    between atoms: _544  and  _545
REMARK  224  A    between atoms: _545  and  _546
REMARK  225  A    between atoms: _555  and  _557
REMARK  226  A    between atoms: _557  and  _558
REMARK  227  A    between atoms: _557  and  _560
REMARK  228  A    between atoms: _560  and  _561
REMARK  229  A    between atoms: _564  and  _566
REMARK  230  A    between atoms: _566  and  _567
REMARK  231  A    between atoms: _566  and  _569
REMARK  232  A    between atoms: _569  and  _570
REMARK  233  A    between atoms: _575  and  _577
REMARK  234  A    between atoms: _577  and  _578
REMARK  235  A    between atoms: _577  and  _580
REMARK  236  A    between atoms: _580  and  _581
REMARK  237  A    between atoms: _581  and  _582
REMARK  238  A    between atoms: _582  and  _583
REMARK  239  A    between atoms: _592  and  _594
REMARK  240  A    between atoms: _594  and  _595
REMARK  241  A    between atoms: _594  and  _597
REMARK  242  A    between atoms: _597  and  _598
REMARK  243  A    between atoms: _598  and  _599
REMARK  244  A    between atoms: _601  and  _603
REMARK  245  A    between atoms: _603  and  _604
REMARK  246  A    between atoms: _603  and  _606
REMARK  247  A    between atoms: _606  and  _607
REMARK  248  A    between atoms: _607  and  _608
REMARK  249  A    between atoms: _610  and  _612
REMARK  250  A    between atoms: _612  and  _613
REMARK  251  A    between atoms: _612  and  _615
REMARK  252  A    between atoms: _615  and  _616
REMARK  253  A    between atoms: _616  and  _617
REMARK  254  A    between atoms: _617  and  _618
REMARK  255  A    between atoms: _618  and  _619
REMARK  256  A    between atoms: _623  and  _625
REMARK  257  A    between atoms: _625  and  _626
REMARK  258  A    between atoms: _625  and  _628
REMARK  259  A    between atoms: _628  and  _629
REMARK                            x       y       z     vdW  Elec       q    Type
REMARK                         _______ _______ _______ _____ _____    ______ ____
ROOT
ATOM      1  O   HOH     1      52.530  13.517  34.858  0.00  0.00    +0.000 OA
ENDROOT
TORSDOF 0
REMARK  Name = ../refined-set-2016/2pq9/2pq9_pocket.pdb
REMARK  259 active torsions:
REMARK  status: ('A' for Active; 'I' for Inactive)
REMARK    1  A    between atoms: _1  and  _3
REMARK    2  A    between atoms: _3  and  _4
REMARK    3  A    between atoms: _3  and  _6
REMARK    4  A    between atoms: _6  and  _7
REMARK    5  A    between atoms: _9  and  _11
REMARK    6  A    between atoms: _11  and  _12
REMARK    7  A    between atoms: _11  and  _14
REMARK    8  A    between atoms: _14  and  _15
REMARK    9  A    between atoms: _15  and  _16
REMARK   10  A    between atoms: _16  and  _17
REMARK   11  A    between atoms: _17  and  _18
REMARK   12  A    between atoms: _22  and  _24
REMARK   13  A    between atoms: _24  and  _25
REMARK   14  A    between atoms: _24  and  _27
REMARK   15  A    between atoms: _27  and  _28
REMARK   16  A    between atoms: _30  and  _32
REMARK   17  A    between atoms: _32  and  _33
REMARK   18  A    between atoms: _32  and  _35
REMARK   19  A    between atoms: _38  and  _40
REMARK   20  A    between atoms: _40  and  _41
REMARK   21  A    between atoms: _40  and  _43
REMARK   22  A    between atoms: _43  and  _44
REMARK   23  A    between atoms: _46  and  _48
REMARK   24  A    between atoms: _48  and  _49
REMARK   25  A    between atoms: _48  and  _51
REMARK   26  A    between atoms: _51  and  _52
REMARK   27  A    between atoms: _57  and  _59
REMARK   28  A    between atoms: _59  and  _60
REMARK   29  A    between atoms: _59  and  _62
REMARK   30  A    between atoms: _62  and  _63
REMARK   31  A    between atoms: _63  and  _64
REMARK   32  A    between atoms: _64  and  _65
REMARK   33  A    between atoms: _74  and  _76
REMARK   34  A    between atoms: _76  and  _77
REMARK   35  A    between atoms: _76  and  _79
REMARK   36  A    between atoms: _79  and  _80
REMARK   37  A    between atoms: _83  and  _85
REMARK   38  A    between atoms: _85  and  _86
REMARK   39  A    between atoms: _85  and  _88
REMARK   40  A    between atoms: _88  and  _89
REMARK   41  A    between atoms: _92  and  _94
REMARK   42  A    between atoms: _94  and  _95
REMARK   43  A    between atoms: _97  and  _99
REMARK   44  A    between atoms: _99  and  _100
REMARK   45  A    between atoms: _99  and  _102
REMARK   46  A    between atoms: _102  and  _103
REMARK   47  A    between atoms: _108  and  _110
REMARK   48  A    between atoms: _110  and  _111
REMARK   49  A    between atoms: _114  and  _116
REMARK   50  A    between atoms: _116  and  _117
REMARK   51  A    between atoms: _119  and  _121
REMARK   52  A    between atoms: _121  and  _122
REMARK   53  A    between atoms: _121  and  _124
REMARK   54  A    between atoms: _124  and  _125
REMARK   55  A    between atoms: _128  and  _130
REMARK   56  A    between atoms: _130  and  _131
REMARK   57  A    between atoms: _134  and  _136
REMARK   58  A    between atoms: _136  and  _137
REMARK   59  A    between atoms: _136  and  _139
REMARK   60  A    between atoms: _139  and  _140
REMARK   61  A    between atoms: _140  and  _141
REMARK   62  A    between atoms: _143  and  _145
REMARK   63  A    between atoms: _145  and  _146
REMARK   64  A    between atoms: _145  and  _148
REMARK   65  A    between atoms: _148  and  _149
REMARK   66  A    between atoms: _149  and  _150
REMARK   67  A    between atoms: _150  and  _151
REMARK   68  A    between atoms: _161  and  _162
REMARK   69  A    between atoms: _167  and  _169
REMARK   70  A    between atoms: _169  and  _170
REMARK   71  A    between atoms: _169  and  _172
REMARK   72  A    between atoms: _172  and  _173
REMARK   73  A    between atoms: _173  and  _174
REMARK   74  A    between atoms: _174  and  _175
REMARK   75  A    between atoms: _184  and  _186
REMARK   76  A    between atoms: _186  and  _187
REMARK   77  A    between atoms: _186  and  _189
REMARK   78  A    between atoms: _189  and  _190
REMARK   79  A    between atoms: _190  and  _191
REMARK   80  A    between atoms: _193  and  _195
REMARK   81  A    between atoms: _195  and  _196
REMARK   82  A    between atoms: _195  and  _198
REMARK   83  A    between atoms: _198  and  _199
REMARK   84  A    between atoms: _199  and  _200
REMARK   85  A    between atoms: _200  and  _201
REMARK   86  A    between atoms: _211  and  _212
REMARK   87  A    between atoms: _217  and  _219
REMARK   88  A    between atoms: _219  and  _220
REMARK   89  A    between atoms: _222  and  _224
REMARK   90  A    between atoms: _224  and  _225
REMARK   91  A    between atoms: _224  and  _227
REMARK   92  A    between atoms: _230  and  _232
REMARK   93  A    between atoms: _232  and  _233
REMARK   94  A    between atoms: _232  and  _235
REMARK   95  A    between atoms: _235  and  _236
REMARK   96  A    between atoms: _238  and  _240
REMARK   97  A    between atoms: _240  and  _241
REMARK   98  A    between atoms: _240  and  _243
REMARK   99  A    between atoms: _243  and  _244
REMARK  100  A    between atoms: _246  and  _248
REMARK  101  A    between atoms: _248  and  _249
REMARK  102  A    between atoms: _248  and  _251
REMARK  103  A    between atoms: _251  and  _252
REMARK  104  A    between atoms: _252  and  _253
REMARK  105  A    between atoms: _258  and  _260
REMARK  106  A    between atoms: _260  and  _261
REMARK  107  A    between atoms: _260  and  _263
REMARK  108  A    between atoms: _263  and  _264
REMARK  109  A    between atoms: _270  and  _272
REMARK  110  A    between atoms: _272  and  _273
REMARK  111  A    between atoms: _272  and  _275
REMARK  112  A    between atoms: _275  and  _276
REMARK  113  A    between atoms: _279  and  _281
REMARK  114  A    between atoms: _281  and  _282
REMARK  115  A    between atoms: _281  and  _284
REMARK  116  A    between atoms: _284  and  _285
REMARK  117  A    between atoms: _288  and  _290
REMARK  118  A    between atoms: _290  and  _291
REMARK  119  A    between atoms: _294  and  _296
REMARK  120  A    between atoms: _296  and  _297
REMARK  121  A    between atoms: _296  and  _299
REMARK  122  A    between atoms: _299  and  _300
REMARK  123  A    between atoms: _303  and  _305
REMARK  124  A    between atoms: _305  and  _306
REMARK  125  A    between atoms: _305  and  _308
REMARK  126  A    between atoms: _311  and  _313
REMARK  127  A    between atoms: _313  and  _314
REMARK  128  A    between atoms: _313  and  _316
REMARK  129  A    between atoms: _316  and  _317
REMARK  130  A    between atoms: _319  and  _321
REMARK  131  A    between atoms: _321  and  _322
REMARK  132  A    between atoms: _321  and  _324
REMARK  133  A    between atoms: _324  and  _325
REMARK  134  A    between atoms: _325  and  _326
REMARK  135  A    between atoms: _326  and  _327
REMARK  136  A    between atoms: _327  and  _328
REMARK  137  A    between atoms: _333  and  _334
REMARK  138  A    between atoms: _339  and  _341
REMARK  139  A    between atoms: _341  and  _342
REMARK  140  A    between atoms: _341  and  _344
REMARK  141  A    between atoms: _344  and  _345
REMARK  142  A    between atoms: _350  and  _351
REMARK  143  A    between atoms: _353  and  _355
REMARK  144  A    between atoms: _355  and  _356
REMARK  145  A    between atoms: _355  and  _358
REMARK  146  A    between atoms: _358  and  _359
REMARK  147  A    between atoms: _362  and  _364
REMARK  148  A    between atoms: _364  and  _365
REMARK  149  A    between atoms: _364  and  _367
REMARK  150  A    between atoms: _367  and  _368
REMARK  151  A    between atoms: _371  and  _373
REMARK  152  A    between atoms: _373  and  _374
REMARK  153  A    between atoms: _373  and  _376
REMARK  154  A    between atoms: _376  and  _377
REMARK  155  A    between atoms: _380  and  _382
REMARK  156  A    between atoms: _382  and  _383
REMARK  157  A    between atoms: _382  and  _385
REMARK  158  A    between atoms: _385  and  _386
REMARK  159  A    between atoms: _389  and  _391
REMARK  160  A    between atoms: _391  and  _392
REMARK  161  A    between atoms: _391  and  _394
REMARK  162  A    between atoms: _394  and  _395
REMARK  163  A    between atoms: _397  and  _399
REMARK  164  A    between atoms: _399  and  _400
REMARK  165  A    between atoms: _399  and  _402
REMARK  166  A    between atoms: _402  and  _403
REMARK  167  A    between atoms: _408  and  _409
REMARK  168  A    between atoms: _411  and  _413
REMARK  169  A    between atoms: _413  and  _414
REMARK  170  A    between atoms: _413  and  _416
REMARK  171  A    between atoms: _416  and  _417
REMARK  172  A    between atoms: _420  and  _422
REMARK  173  A    between atoms: _422  and  _423
REMARK  174  A    between atoms: _422  and  _425
REMARK  175  A    between atoms: _425  and  _426
REMARK  176  A    between atoms: _431  and  _433
REMARK  177  A    between atoms: _433  and  _434
REMARK  178  A    between atoms: _433  and  _436
REMARK  179  A    between atoms: _436  and  _437
REMARK  180  A    between atoms: _441  and  _442
REMARK  181  A    between atoms: _447  and  _449
REMARK  182  A    between atoms: _449  and  _450
REMARK  183  A    between atoms: _449  and  _452
REMARK  184  A    between atoms: _452  and  _453
REMARK  185  A    between atoms: _456  and  _458
REMARK  186  A    between atoms: _458  and  _459
REMARK  187  A    between atoms: _462  and  _464
REMARK  188  A    between atoms: _464  and  _465
REMARK  189  A    between atoms: _464  and  _467
REMARK  190  A    between atoms: _467  and  _468
REMARK  191  A    between atoms: _468  and  _469
REMARK  192  A    between atoms: _471  and  _473
REMARK  193  A    between atoms: _473  and  _474
REMARK  194  A    between atoms: _473  and  _476
REMARK  195  A    between atoms: _476  and  _477
REMARK  196  A    between atoms: _482  and  _484
REMARK  197  A    between atoms: _484  and  _485
REMARK  198  A    between atoms: _484  and  _487
REMARK  199  A    between atoms: _487  and  _488
REMARK  200  A    between atoms: _498  and  _500
REMARK  201  A    between atoms: _500  and  _501
REMARK  202  A    between atoms: _500  and  _503
REMARK  203  A    between atoms: _506  and  _508
REMARK  204  A    between atoms: _508  and  _509
REMARK  205  A    between atoms: _508  and  _511
REMARK  206  A    between atoms: _511  and  _512
REMARK  207  A    between atoms: _512  and  _513
REMARK  208  A    between atoms: _513  and  _514
REMARK  209  A    between atoms: _514  and  _515
REMARK  210  A    between atoms: _519  and  _521
REMARK  211  A    between atoms: _521  and  _522
REMARK  212  A    between atoms: _521  and  _524
REMARK  213  A    between atoms: _524  and  _525
REMARK  214  A    between atoms: _525  and  _526
REMARK  215  A    between atoms: _529  and  _531
REMARK  216  A    between atoms: _531  and  _532
REMARK  217  A    between atoms: _531  and  _534
REMARK  218  A    between atoms: _534  and  _535
REMARK  219  A    between atoms: _538  and  _540
REMARK  220  A    between atoms: _540  and  _541
REMARK  221  A    between atoms: _540  and  _543
REMARK  222  A    between atoms: _543  and  _544
REMARK  223  A    between atoms: _544  and  _545
REMARK  224  A    between atoms: _545  and  _546
REMARK  225  A    between atoms: _555  and  _557
REMARK  226  A    between atoms: _557  and  _558
REMARK  227  A    between atoms: _557  and  _560
REMARK  228  A    between atoms: _560  and  _561
REMARK  229  A    between atoms: _564  and  _566
REMARK  230  A    between atoms: _566  and  _567
REMARK  231  A    between atoms: _566  and  _569
REMARK  232  A    between atoms: _569  and  _570
REMARK  233  A    between atoms: _575  and  _577
REMARK  234  A    between atoms: _577  and  _578
REMARK  235  A    between atoms: _577  and  _580
REMARK  236  A    between atoms: _580  and  _581
REMARK  237  A    between atoms: _581  and  _582
REMARK  238  A    between atoms: _582  and  _583
REMARK  239  A    between atoms: _592  and  _594
REMARK  240  A    between atoms: _594  and  _595
REMARK  241  A    between atoms: _594  and  _597
REMARK  242  A    between atoms: _597  and  _598
REMARK  243  A    between atoms: _598  and  _599
REMARK  244  A    between atoms: _601  and  _603
REMARK  245  A    between atoms: _603  and  _604
REMARK  246  A    between atoms: _603  and  _606
REMARK  247  A    between atoms: _606  and  _607
REMARK  248  A    between atoms: _607  and  _608
REMARK  249  A    between atoms: _610  and  _612
REMARK  250  A    between atoms: _612  and  _613
REMARK  251  A    between atoms: _612  and  _615
REMARK  252  A    between atoms: _615  and  _616
REMARK  253  A    between atoms: _616  and  _617
REMARK  254  A    between atoms: _617  and  _618
REMARK  255  A    between atoms: _618  and  _619
REMARK  256  A    between atoms: _623  and  _625
REMARK  257  A    between atoms: _625  and  _626
REMARK  258  A    between atoms: _625  and  _628
REMARK  259  A    between atoms: _628  and  _629
REMARK                            x       y       z     vdW  Elec       q    Type
REMARK                         _______ _______ _______ _____ _____    ______ ____
ROOT
ATOM      1  O   HOH     1      55.257  15.976  34.291  0.00  0.00    +0.000 OA
ENDROOT
TORSDOF 0
REMARK  Name = ../refined-set-2016/2pq9/2pq9_pocket.pdb
REMARK  259 active torsions:
REMARK  status: ('A' for Active; 'I' for Inactive)
REMARK    1  A    between atoms: _1  and  _3
REMARK    2  A    between atoms: _3  and  _4
REMARK    3  A    between atoms: _3  and  _6
REMARK    4  A    between atoms: _6  and  _7
REMARK    5  A    between atoms: _9  and  _11
REMARK    6  A    between atoms: _11  and  _12
REMARK    7  A    between atoms: _11  and  _14
REMARK    8  A    between atoms: _14  and  _15
REMARK    9  A    between atoms: _15  and  _16
REMARK   10  A    between atoms: _16  and  _17
REMARK   11  A    between atoms: _17  and  _18
REMARK   12  A    between atoms: _22  and  _24
REMARK   13  A    between atoms: _24  and  _25
REMARK   14  A    between atoms: _24  and  _27
REMARK   15  A    between atoms: _27  and  _28
REMARK   16  A    between atoms: _30  and  _32
REMARK   17  A    between atoms: _32  and  _33
REMARK   18  A    between atoms: _32  and  _35
REMARK   19  A    between atoms: _38  and  _40
REMARK   20  A    between atoms: _40  and  _41
REMARK   21  A    between atoms: _40  and  _43
REMARK   22  A    between atoms: _43  and  _44
REMARK   23  A    between atoms: _46  and  _48
REMARK   24  A    between atoms: _48  and  _49
REMARK   25  A    between atoms: _48  and  _51
REMARK   26  A    between atoms: _51  and  _52
REMARK   27  A    between atoms: _57  and  _59
REMARK   28  A    between atoms: _59  and  _60
REMARK   29  A    between atoms: _59  and  _62
REMARK   30  A    between atoms: _62  and  _63
REMARK   31  A    between atoms: _63  and  _64
REMARK   32  A    between atoms: _64  and  _65
REMARK   33  A    between atoms: _74  and  _76
REMARK   34  A    between atoms: _76  and  _77
REMARK   35  A    between atoms: _76  and  _79
REMARK   36  A    between atoms: _79  and  _80
REMARK   37  A    between atoms: _83  and  _85
REMARK   38  A    between atoms: _85  and  _86
REMARK   39  A    between atoms: _85  and  _88
REMARK   40  A    between atoms: _88  and  _89
REMARK   41  A    between atoms: _92  and  _94
REMARK   42  A    between atoms: _94  and  _95
REMARK   43  A    between atoms: _97  and  _99
REMARK   44  A    between atoms: _99  and  _100
REMARK   45  A    between atoms: _99  and  _102
REMARK   46  A    between atoms: _102  and  _103
REMARK   47  A    between atoms: _108  and  _110
REMARK   48  A    between atoms: _110  and  _111
REMARK   49  A    between atoms: _114  and  _116
REMARK   50  A    between atoms: _116  and  _117
REMARK   51  A    between atoms: _119  and  _121
REMARK   52  A    between atoms: _121  and  _122
REMARK   53  A    between atoms: _121  and  _124
REMARK   54  A    between atoms: _124  and  _125
REMARK   55  A    between atoms: _128  and  _130
REMARK   56  A    between atoms: _130  and  _131
REMARK   57  A    between atoms: _134  and  _136
REMARK   58  A    between atoms: _136  and  _137
REMARK   59  A    between atoms: _136  and  _139
REMARK   60  A    between atoms: _139  and  _140
REMARK   61  A    between atoms: _140  and  _141
REMARK   62  A    between atoms: _143  and  _145
REMARK   63  A    between atoms: _145  and  _146
REMARK   64  A    between atoms: _145  and  _148
REMARK   65  A    between atoms: _148  and  _149
REMARK   66  A    between atoms: _149  and  _150
REMARK   67  A    between atoms: _150  and  _151
REMARK   68  A    between atoms: _161  and  _162
REMARK   69  A    between atoms: _167  and  _169
REMARK   70  A    between atoms: _169  and  _170
REMARK   71  A    between atoms: _169  and  _172
REMARK   72  A    between atoms: _172  and  _173
REMARK   73  A    between atoms: _173  and  _174
REMARK   74  A    between atoms: _174  and  _175
REMARK   75  A    between atoms: _184  and  _186
REMARK   76  A    between atoms: _186  and  _187
REMARK   77  A    between atoms: _186  and  _189
REMARK   78  A    between atoms: _189  and  _190
REMARK   79  A    between atoms: _190  and  _191
REMARK   80  A    between atoms: _193  and  _195
REMARK   81  A    between atoms: _195  and  _196
REMARK   82  A    between atoms: _195  and  _198
REMARK   83  A    between atoms: _198  and  _199
REMARK   84  A    between atoms: _199  and  _200
REMARK   85  A    between atoms: _200  and  _201
REMARK   86  A    between atoms: _211  and  _212
REMARK   87  A    between atoms: _217  and  _219
REMARK   88  A    between atoms: _219  and  _220
REMARK   89  A    between atoms: _222  and  _224
REMARK   90  A    between atoms: _224  and  _225
REMARK   91  A    between atoms: _224  and  _227
REMARK   92  A    between atoms: _230  and  _232
REMARK   93  A    between atoms: _232  and  _233
REMARK   94  A    between atoms: _232  and  _235
REMARK   95  A    between atoms: _235  and  _236
REMARK   96  A    between atoms: _238  and  _240
REMARK   97  A    between atoms: _240  and  _241
REMARK   98  A    between atoms: _240  and  _243
REMARK   99  A    between atoms: _243  and  _244
REMARK  100  A    between atoms: _246  and  _248
REMARK  101  A    between atoms: _248  and  _249
REMARK  102  A    between atoms: _248  and  _251
REMARK  103  A    between atoms: _251  and  _252
REMARK  104  A    between atoms: _252  and  _253
REMARK  105  A    between atoms: _258  and  _260
REMARK  106  A    between atoms: _260  and  _261
REMARK  107  A    between atoms: _260  and  _263
REMARK  108  A    between atoms: _263  and  _264
REMARK  109  A    between atoms: _270  and  _272
REMARK  110  A    between atoms: _272  and  _273
REMARK  111  A    between atoms: _272  and  _275
REMARK  112  A    between atoms: _275  and  _276
REMARK  113  A    between atoms: _279  and  _281
REMARK  114  A    between atoms: _281  and  _282
REMARK  115  A    between atoms: _281  and  _284
REMARK  116  A    between atoms: _284  and  _285
REMARK  117  A    between atoms: _288  and  _290
REMARK  118  A    between atoms: _290  and  _291
REMARK  119  A    between atoms: _294  and  _296
REMARK  120  A    between atoms: _296  and  _297
REMARK  121  A    between atoms: _296  and  _299
REMARK  122  A    between atoms: _299  and  _300
REMARK  123  A    between atoms: _303  and  _305
REMARK  124  A    between atoms: _305  and  _306
REMARK  125  A    between atoms: _305  and  _308
REMARK  126  A    between atoms: _311  and  _313
REMARK  127  A    between atoms: _313  and  _314
REMARK  128  A    between atoms: _313  and  _316
REMARK  129  A    between atoms: _316  and  _317
REMARK  130  A    between atoms: _319  and  _321
REMARK  131  A    between atoms: _321  and  _322
REMARK  132  A    between atoms: _321  and  _324
REMARK  133  A    between atoms: _324  and  _325
REMARK  134  A    between atoms: _325  and  _326
REMARK  135  A    between atoms: _326  and  _327
REMARK  136  A    between atoms: _327  and  _328
REMARK  137  A    between atoms: _333  and  _334
REMARK  138  A    between atoms: _339  and  _341
REMARK  139  A    between atoms: _341  and  _342
REMARK  140  A    between atoms: _341  and  _344
REMARK  141  A    between atoms: _344  and  _345
REMARK  142  A    between atoms: _350  and  _351
REMARK  143  A    between atoms: _353  and  _355
REMARK  144  A    between atoms: _355  and  _356
REMARK  145  A    between atoms: _355  and  _358
REMARK  146  A    between atoms: _358  and  _359
REMARK  147  A    between atoms: _362  and  _364
REMARK  148  A    between atoms: _364  and  _365
REMARK  149  A    between atoms: _364  and  _367
REMARK  150  A    between atoms: _367  and  _368
REMARK  151  A    between atoms: _371  and  _373
REMARK  152  A    between atoms: _373  and  _374
REMARK  153  A    between atoms: _373  and  _376
REMARK  154  A    between atoms: _376  and  _377
REMARK  155  A    between atoms: _380  and  _382
REMARK  156  A    between atoms: _382  and  _383
REMARK  157  A    between atoms: _382  and  _385
REMARK  158  A    between atoms: _385  and  _386
REMARK  159  A    between atoms: _389  and  _391
REMARK  160  A    between atoms: _391  and  _392
REMARK  161  A    between atoms: _391  and  _394
REMARK  162  A    between atoms: _394  and  _395
REMARK  163  A    between atoms: _397  and  _399
REMARK  164  A    between atoms: _399  and  _400
REMARK  165  A    between atoms: _399  and  _402
REMARK  166  A    between atoms: _402  and  _403
REMARK  167  A    between atoms: _408  and  _409
REMARK  168  A    between atoms: _411  and  _413
REMARK  169  A    between atoms: _413  and  _414
REMARK  170  A    between atoms: _413  and  _416
REMARK  171  A    between atoms: _416  and  _417
REMARK  172  A    between atoms: _420  and  _422
REMARK  173  A    between atoms: _422  and  _423
REMARK  174  A    between atoms: _422  and  _425
REMARK  175  A    between atoms: _425  and  _426
REMARK  176  A    between atoms: _431  and  _433
REMARK  177  A    between atoms: _433  and  _434
REMARK  178  A    between atoms: _433  and  _436
REMARK  179  A    between atoms: _436  and  _437
REMARK  180  A    between atoms: _441  and  _442
REMARK  181  A    between atoms: _447  and  _449
REMARK  182  A    between atoms: _449  and  _450
REMARK  183  A    between atoms: _449  and  _452
REMARK  184  A    between atoms: _452  and  _453
REMARK  185  A    between atoms: _456  and  _458
REMARK  186  A    between atoms: _458  and  _459
REMARK  187  A    between atoms: _462  and  _464
REMARK  188  A    between atoms: _464  and  _465
REMARK  189  A    between atoms: _464  and  _467
REMARK  190  A    between atoms: _467  and  _468
REMARK  191  A    between atoms: _468  and  _469
REMARK  192  A    between atoms: _471  and  _473
REMARK  193  A    between atoms: _473  and  _474
REMARK  194  A    between atoms: _473  and  _476
REMARK  195  A    between atoms: _476  and  _477
REMARK  196  A    between atoms: _482  and  _484
REMARK  197  A    between atoms: _484  and  _485
REMARK  198  A    between atoms: _484  and  _487
REMARK  199  A    between atoms: _487  and  _488
REMARK  200  A    between atoms: _498  and  _500
REMARK  201  A    between atoms: _500  and  _501
REMARK  202  A    between atoms: _500  and  _503
REMARK  203  A    between atoms: _506  and  _508
REMARK  204  A    between atoms: _508  and  _509
REMARK  205  A    between atoms: _508  and  _511
REMARK  206  A    between atoms: _511  and  _512
REMARK  207  A    between atoms: _512  and  _513
REMARK  208  A    between atoms: _513  and  _514
REMARK  209  A    between atoms: _514  and  _515
REMARK  210  A    between atoms: _519  and  _521
REMARK  211  A    between atoms: _521  and  _522
REMARK  212  A    between atoms: _521  and  _524
REMARK  213  A    between atoms: _524  and  _525
REMARK  214  A    between atoms: _525  and  _526
REMARK  215  A    between atoms: _529  and  _531
REMARK  216  A    between atoms: _531  and  _532
REMARK  217  A    between atoms: _531  and  _534
REMARK  218  A    between atoms: _534  and  _535
REMARK  219  A    between atoms: _538  and  _540
REMARK  220  A    between atoms: _540  and  _541
REMARK  221  A    between atoms: _540  and  _543
REMARK  222  A    between atoms: _543  and  _544
REMARK  223  A    between atoms: _544  and  _545
REMARK  224  A    between atoms: _545  and  _546
REMARK  225  A    between atoms: _555  and  _557
REMARK  226  A    between atoms: _557  and  _558
REMARK  227  A    between atoms: _557  and  _560
REMARK  228  A    between atoms: _560  and  _561
REMARK  229  A    between atoms: _564  and  _566
REMARK  230  A    between atoms: _566  and  _567
REMARK  231  A    between atoms: _566  and  _569
REMARK  232  A    between atoms: _569  and  _570
REMARK  233  A    between atoms: _575  and  _577
REMARK  234  A    between atoms: _577  and  _578
REMARK  235  A    between atoms: _577  and  _580
REMARK  236  A    between atoms: _580  and  _581
REMARK  237  A    between atoms: _581  and  _582
REMARK  238  A    between atoms: _582  and  _583
REMARK  239  A    between atoms: _592  and  _594
REMARK  240  A    between atoms: _594  and  _595
REMARK  241  A    between atoms: _594  and  _597
REMARK  242  A    between atoms: _597  and  _598
REMARK  243  A    between atoms: _598  and  _599
REMARK  244  A    between atoms: _601  and  _603
REMARK  245  A    between atoms: _603  and  _604
REMARK  246  A    between atoms: _603  and  _606
REMARK  247  A    between atoms: _606  and  _607
REMARK  248  A    between atoms: _607  and  _608
REMARK  249  A    between atoms: _610  and  _612
REMARK  250  A    between atoms: _612  and  _613
REMARK  251  A    between atoms: _612  and  _615
REMARK  252  A    between atoms: _615  and  _616
REMARK  253  A    between atoms: _616  and  _617
REMARK  254  A    between atoms: _617  and  _618
REMARK  255  A    between atoms: _618  and  _619
REMARK  256  A    between atoms: _623  and  _625
REMARK  257  A    between atoms: _625  and  _626
REMARK  258  A    between atoms: _625  and  _628
REMARK  259  A    between atoms: _628  and  _629
REMARK                            x       y       z     vdW  Elec       q    Type
REMARK                         _______ _______ _______ _____ _____    ______ ____
ROOT
ATOM      1  O   HOH     1      50.472   6.459  32.153  0.00  0.00    +0.000 OA
ENDROOT
TORSDOF 0
REMARK  Name = ../refined-set-2016/2pq9/2pq9_pocket.pdb
REMARK  259 active torsions:
REMARK  status: ('A' for Active; 'I' for Inactive)
REMARK    1  A    between atoms: _1  and  _3
REMARK    2  A    between atoms: _3  and  _4
REMARK    3  A    between atoms: _3  and  _6
REMARK    4  A    between atoms: _6  and  _7
REMARK    5  A    between atoms: _9  and  _11
REMARK    6  A    between atoms: _11  and  _12
REMARK    7  A    between atoms: _11  and  _14
REMARK    8  A    between atoms: _14  and  _15
REMARK    9  A    between atoms: _15  and  _16
REMARK   10  A    between atoms: _16  and  _17
REMARK   11  A    between atoms: _17  and  _18
REMARK   12  A    between atoms: _22  and  _24
REMARK   13  A    between atoms: _24  and  _25
REMARK   14  A    between atoms: _24  and  _27
REMARK   15  A    between atoms: _27  and  _28
REMARK   16  A    between atoms: _30  and  _32
REMARK   17  A    between atoms: _32  and  _33
REMARK   18  A    between atoms: _32  and  _35
REMARK   19  A    between atoms: _38  and  _40
REMARK   20  A    between atoms: _40  and  _41
REMARK   21  A    between atoms: _40  and  _43
REMARK   22  A    between atoms: _43  and  _44
REMARK   23  A    between atoms: _46  and  _48
REMARK   24  A    between atoms: _48  and  _49
REMARK   25  A    between atoms: _48  and  _51
REMARK   26  A    between atoms: _51  and  _52
REMARK   27  A    between atoms: _57  and  _59
REMARK   28  A    between atoms: _59  and  _60
REMARK   29  A    between atoms: _59  and  _62
REMARK   30  A    between atoms: _62  and  _63
REMARK   31  A    between atoms: _63  and  _64
REMARK   32  A    between atoms: _64  and  _65
REMARK   33  A    between atoms: _74  and  _76
REMARK   34  A    between atoms: _76  and  _77
REMARK   35  A    between atoms: _76  and  _79
REMARK   36  A    between atoms: _79  and  _80
REMARK   37  A    between atoms: _83  and  _85
REMARK   38  A    between atoms: _85  and  _86
REMARK   39  A    between atoms: _85  and  _88
REMARK   40  A    between atoms: _88  and  _89
REMARK   41  A    between atoms: _92  and  _94
REMARK   42  A    between atoms: _94  and  _95
REMARK   43  A    between atoms: _97  and  _99
REMARK   44  A    between atoms: _99  and  _100
REMARK   45  A    between atoms: _99  and  _102
REMARK   46  A    between atoms: _102  and  _103
REMARK   47  A    between atoms: _108  and  _110
REMARK   48  A    between atoms: _110  and  _111
REMARK   49  A    between atoms: _114  and  _116
REMARK   50  A    between atoms: _116  and  _117
REMARK   51  A    between atoms: _119  and  _121
REMARK   52  A    between atoms: _121  and  _122
REMARK   53  A    between atoms: _121  and  _124
REMARK   54  A    between atoms: _124  and  _125
REMARK   55  A    between atoms: _128  and  _130
REMARK   56  A    between atoms: _130  and  _131
REMARK   57  A    between atoms: _134  and  _136
REMARK   58  A    between atoms: _136  and  _137
REMARK   59  A    between atoms: _136  and  _139
REMARK   60  A    between atoms: _139  and  _140
REMARK   61  A    between atoms: _140  and  _141
REMARK   62  A    between atoms: _143  and  _145
REMARK   63  A    between atoms: _145  and  _146
REMARK   64  A    between atoms: _145  and  _148
REMARK   65  A    between atoms: _148  and  _149
REMARK   66  A    between atoms: _149  and  _150
REMARK   67  A    between atoms: _150  and  _151
REMARK   68  A    between atoms: _161  and  _162
REMARK   69  A    between atoms: _167  and  _169
REMARK   70  A    between atoms: _169  and  _170
REMARK   71  A    between atoms: _169  and  _172
REMARK   72  A    between atoms: _172  and  _173
REMARK   73  A    between atoms: _173  and  _174
REMARK   74  A    between atoms: _174  and  _175
REMARK   75  A    between atoms: _184  and  _186
REMARK   76  A    between atoms: _186  and  _187
REMARK   77  A    between atoms: _186  and  _189
REMARK   78  A    between atoms: _189  and  _190
REMARK   79  A    between atoms: _190  and  _191
REMARK   80  A    between atoms: _193  and  _195
REMARK   81  A    between atoms: _195  and  _196
REMARK   82  A    between atoms: _195  and  _198
REMARK   83  A    between atoms: _198  and  _199
REMARK   84  A    between atoms: _199  and  _200
REMARK   85  A    between atoms: _200  and  _201
REMARK   86  A    between atoms: _211  and  _212
REMARK   87  A    between atoms: _217  and  _219
REMARK   88  A    between atoms: _219  and  _220
REMARK   89  A    between atoms: _222  and  _224
REMARK   90  A    between atoms: _224  and  _225
REMARK   91  A    between atoms: _224  and  _227
REMARK   92  A    between atoms: _230  and  _232
REMARK   93  A    between atoms: _232  and  _233
REMARK   94  A    between atoms: _232  and  _235
REMARK   95  A    between atoms: _235  and  _236
REMARK   96  A    between atoms: _238  and  _240
REMARK   97  A    between atoms: _240  and  _241
REMARK   98  A    between atoms: _240  and  _243
REMARK   99  A    between atoms: _243  and  _244
REMARK  100  A    between atoms: _246  and  _248
REMARK  101  A    between atoms: _248  and  _249
REMARK  102  A    between atoms: _248  and  _251
REMARK  103  A    between atoms: _251  and  _252
REMARK  104  A    between atoms: _252  and  _253
REMARK  105  A    between atoms: _258  and  _260
REMARK  106  A    between atoms: _260  and  _261
REMARK  107  A    between atoms: _260  and  _263
REMARK  108  A    between atoms: _263  and  _264
REMARK  109  A    between atoms: _270  and  _272
REMARK  110  A    between atoms: _272  and  _273
REMARK  111  A    between atoms: _272  and  _275
REMARK  112  A    between atoms: _275  and  _276
REMARK  113  A    between atoms: _279  and  _281
REMARK  114  A    between atoms: _281  and  _282
REMARK  115  A    between atoms: _281  and  _284
REMARK  116  A    between atoms: _284  and  _285
REMARK  117  A    between atoms: _288  and  _290
REMARK  118  A    between atoms: _290  and  _291
REMARK  119  A    between atoms: _294  and  _296
REMARK  120  A    between atoms: _296  and  _297
REMARK  121  A    between atoms: _296  and  _299
REMARK  122  A    between atoms: _299  and  _300
REMARK  123  A    between atoms: _303  and  _305
REMARK  124  A    between atoms: _305  and  _306
REMARK  125  A    between atoms: _305  and  _308
REMARK  126  A    between atoms: _311  and  _313
REMARK  127  A    between atoms: _313  and  _314
REMARK  128  A    between atoms: _313  and  _316
REMARK  129  A    between atoms: _316  and  _317
REMARK  130  A    between atoms: _319  and  _321
REMARK  131  A    between atoms: _321  and  _322
REMARK  132  A    between atoms: _321  and  _324
REMARK  133  A    between atoms: _324  and  _325
REMARK  134  A    between atoms: _325  and  _326
REMARK  135  A    between atoms: _326  and  _327
REMARK  136  A    between atoms: _327  and  _328
REMARK  137  A    between atoms: _333  and  _334
REMARK  138  A    between atoms: _339  and  _341
REMARK  139  A    between atoms: _341  and  _342
REMARK  140  A    between atoms: _341  and  _344
REMARK  141  A    between atoms: _344  and  _345
REMARK  142  A    between atoms: _350  and  _351
REMARK  143  A    between atoms: _353  and  _355
REMARK  144  A    between atoms: _355  and  _356
REMARK  145  A    between atoms: _355  and  _358
REMARK  146  A    between atoms: _358  and  _359
REMARK  147  A    between atoms: _362  and  _364
REMARK  148  A    between atoms: _364  and  _365
REMARK  149  A    between atoms: _364  and  _367
REMARK  150  A    between atoms: _367  and  _368
REMARK  151  A    between atoms: _371  and  _373
REMARK  152  A    between atoms: _373  and  _374
REMARK  153  A    between atoms: _373  and  _376
REMARK  154  A    between atoms: _376  and  _377
REMARK  155  A    between atoms: _380  and  _382
REMARK  156  A    between atoms: _382  and  _383
REMARK  157  A    between atoms: _382  and  _385
REMARK  158  A    between atoms: _385  and  _386
REMARK  159  A    between atoms: _389  and  _391
REMARK  160  A    between atoms: _391  and  _392
REMARK  161  A    between atoms: _391  and  _394
REMARK  162  A    between atoms: _394  and  _395
REMARK  163  A    between atoms: _397  and  _399
REMARK  164  A    between atoms: _399  and  _400
REMARK  165  A    between atoms: _399  and  _402
REMARK  166  A    between atoms: _402  and  _403
REMARK  167  A    between atoms: _408  and  _409
REMARK  168  A    between atoms: _411  and  _413
REMARK  169  A    between atoms: _413  and  _414
REMARK  170  A    between atoms: _413  and  _416
REMARK  171  A    between atoms: _416  and  _417
REMARK  172  A    between atoms: _420  and  _422
REMARK  173  A    between atoms: _422  and  _423
REMARK  174  A    between atoms: _422  and  _425
REMARK  175  A    between atoms: _425  and  _426
REMARK  176  A    between atoms: _431  and  _433
REMARK  177  A    between atoms: _433  and  _434
REMARK  178  A    between atoms: _433  and  _436
REMARK  179  A    between atoms: _436  and  _437
REMARK  180  A    between atoms: _441  and  _442
REMARK  181  A    between atoms: _447  and  _449
REMARK  182  A    between atoms: _449  and  _450
REMARK  183  A    between atoms: _449  and  _452
REMARK  184  A    between atoms: _452  and  _453
REMARK  185  A    between atoms: _456  and  _458
REMARK  186  A    between atoms: _458  and  _459
REMARK  187  A    between atoms: _462  and  _464
REMARK  188  A    between atoms: _464  and  _465
REMARK  189  A    between atoms: _464  and  _467
REMARK  190  A    between atoms: _467  and  _468
REMARK  191  A    between atoms: _468  and  _469
REMARK  192  A    between atoms: _471  and  _473
REMARK  193  A    between atoms: _473  and  _474
REMARK  194  A    between atoms: _473  and  _476
REMARK  195  A    between atoms: _476  and  _477
REMARK  196  A    between atoms: _482  and  _484
REMARK  197  A    between atoms: _484  and  _485
REMARK  198  A    between atoms: _484  and  _487
REMARK  199  A    between atoms: _487  and  _488
REMARK  200  A    between atoms: _498  and  _500
REMARK  201  A    between atoms: _500  and  _501
REMARK  202  A    between atoms: _500  and  _503
REMARK  203  A    between atoms: _506  and  _508
REMARK  204  A    between atoms: _508  and  _509
REMARK  205  A    between atoms: _508  and  _511
REMARK  206  A    between atoms: _511  and  _512
REMARK  207  A    between atoms: _512  and  _513
REMARK  208  A    between atoms: _513  and  _514
REMARK  209  A    between atoms: _514  and  _515
REMARK  210  A    between atoms: _519  and  _521
REMARK  211  A    between atoms: _521  and  _522
REMARK  212  A    between atoms: _521  and  _524
REMARK  213  A    between atoms: _524  and  _525
REMARK  214  A    between atoms: _525  and  _526
REMARK  215  A    between atoms: _529  and  _531
REMARK  216  A    between atoms: _531  and  _532
REMARK  217  A    between atoms: _531  and  _534
REMARK  218  A    between atoms: _534  and  _535
REMARK  219  A    between atoms: _538  and  _540
REMARK  220  A    between atoms: _540  and  _541
REMARK  221  A    between atoms: _540  and  _543
REMARK  222  A    between atoms: _543  and  _544
REMARK  223  A    between atoms: _544  and  _545
REMARK  224  A    between atoms: _545  and  _546
REMARK  225  A    between atoms: _555  and  _557
REMARK  226  A    between atoms: _557  and  _558
REMARK  227  A    between atoms: _557  and  _560
REMARK  228  A    between atoms: _560  and  _561
REMARK  229  A    between atoms: _564  and  _566
REMARK  230  A    between atoms: _566  and  _567
REMARK  231  A    between atoms: _566  and  _569
REMARK  232  A    between atoms: _569  and  _570
REMARK  233  A    between atoms: _575  and  _577
REMARK  234  A    between atoms: _577  and  _578
REMARK  235  A    between atoms: _577  and  _580
REMARK  236  A    between atoms: _580  and  _581
REMARK  237  A    between atoms: _581  and  _582
REMARK  238  A    between atoms: _582  and  _583
REMARK  239  A    between atoms: _592  and  _594
REMARK  240  A    between atoms: _594  and  _595
REMARK  241  A    between atoms: _594  and  _597
REMARK  242  A    between atoms: _597  and  _598
REMARK  243  A    between atoms: _598  and  _599
REMARK  244  A    between atoms: _601  and  _603
REMARK  245  A    between atoms: _603  and  _604
REMARK  246  A    between atoms: _603  and  _606
REMARK  247  A    between atoms: _606  and  _607
REMARK  248  A    between atoms: _607  and  _608
REMARK  249  A    between atoms: _610  and  _612
REMARK  250  A    between atoms: _612  and  _613
REMARK  251  A    between atoms: _612  and  _615
REMARK  252  A    between atoms: _615  and  _616
REMARK  253  A    between atoms: _616  and  _617
REMARK  254  A    between atoms: _617  and  _618
REMARK  255  A    between atoms: _618  and  _619
REMARK  256  A    between atoms: _623  and  _625
REMARK  257  A    between atoms: _625  and  _626
REMARK  258  A    between atoms: _625  and  _628
REMARK  259  A    between atoms: _628  and  _629
REMARK                            x       y       z     vdW  Elec       q    Type
REMARK                         _______ _______ _______ _____ _____    ______ ____
ROOT
ATOM      1  O   HOH     1      53.075  12.916  25.274  0.00  0.00    +0.000 OA
ENDROOT
TORSDOF 0
REMARK  Name = ../refined-set-2016/2pq9/2pq9_pocket.pdb
REMARK  259 active torsions:
REMARK  status: ('A' for Active; 'I' for Inactive)
REMARK    1  A    between atoms: _1  and  _3
REMARK    2  A    between atoms: _3  and  _4
REMARK    3  A    between atoms: _3  and  _6
REMARK    4  A    between atoms: _6  and  _7
REMARK    5  A    between atoms: _9  and  _11
REMARK    6  A    between atoms: _11  and  _12
REMARK    7  A    between atoms: _11  and  _14
REMARK    8  A    between atoms: _14  and  _15
REMARK    9  A    between atoms: _15  and  _16
REMARK   10  A    between atoms: _16  and  _17
REMARK   11  A    between atoms: _17  and  _18
REMARK   12  A    between atoms: _22  and  _24
REMARK   13  A    between atoms: _24  and  _25
REMARK   14  A    between atoms: _24  and  _27
REMARK   15  A    between atoms: _27  and  _28
REMARK   16  A    between atoms: _30  and  _32
REMARK   17  A    between atoms: _32  and  _33
REMARK   18  A    between atoms: _32  and  _35
REMARK   19  A    between atoms: _38  and  _40
REMARK   20  A    between atoms: _40  and  _41
REMARK   21  A    between atoms: _40  and  _43
REMARK   22  A    between atoms: _43  and  _44
REMARK   23  A    between atoms: _46  and  _48
REMARK   24  A    between atoms: _48  and  _49
REMARK   25  A    between atoms: _48  and  _51
REMARK   26  A    between atoms: _51  and  _52
REMARK   27  A    between atoms: _57  and  _59
REMARK   28  A    between atoms: _59  and  _60
REMARK   29  A    between atoms: _59  and  _62
REMARK   30  A    between atoms: _62  and  _63
REMARK   31  A    between atoms: _63  and  _64
REMARK   32  A    between atoms: _64  and  _65
REMARK   33  A    between atoms: _74  and  _76
REMARK   34  A    between atoms: _76  and  _77
REMARK   35  A    between atoms: _76  and  _79
REMARK   36  A    between atoms: _79  and  _80
REMARK   37  A    between atoms: _83  and  _85
REMARK   38  A    between atoms: _85  and  _86
REMARK   39  A    between atoms: _85  and  _88
REMARK   40  A    between atoms: _88  and  _89
REMARK   41  A    between atoms: _92  and  _94
REMARK   42  A    between atoms: _94  and  _95
REMARK   43  A    between atoms: _97  and  _99
REMARK   44  A    between atoms: _99  and  _100
REMARK   45  A    between atoms: _99  and  _102
REMARK   46  A    between atoms: _102  and  _103
REMARK   47  A    between atoms: _108  and  _110
REMARK   48  A    between atoms: _110  and  _111
REMARK   49  A    between atoms: _114  and  _116
REMARK   50  A    between atoms: _116  and  _117
REMARK   51  A    between atoms: _119  and  _121
REMARK   52  A    between atoms: _121  and  _122
REMARK   53  A    between atoms: _121  and  _124
REMARK   54  A    between atoms: _124  and  _125
REMARK   55  A    between atoms: _128  and  _130
REMARK   56  A    between atoms: _130  and  _131
REMARK   57  A    between atoms: _134  and  _136
REMARK   58  A    between atoms: _136  and  _137
REMARK   59  A    between atoms: _136  and  _139
REMARK   60  A    between atoms: _139  and  _140
REMARK   61  A    between atoms: _140  and  _141
REMARK   62  A    between atoms: _143  and  _145
REMARK   63  A    between atoms: _145  and  _146
REMARK   64  A    between atoms: _145  and  _148
REMARK   65  A    between atoms: _148  and  _149
REMARK   66  A    between atoms: _149  and  _150
REMARK   67  A    between atoms: _150  and  _151
REMARK   68  A    between atoms: _161  and  _162
REMARK   69  A    between atoms: _167  and  _169
REMARK   70  A    between atoms: _169  and  _170
REMARK   71  A    between atoms: _169  and  _172
REMARK   72  A    between atoms: _172  and  _173
REMARK   73  A    between atoms: _173  and  _174
REMARK   74  A    between atoms: _174  and  _175
REMARK   75  A    between atoms: _184  and  _186
REMARK   76  A    between atoms: _186  and  _187
REMARK   77  A    between atoms: _186  and  _189
REMARK   78  A    between atoms: _189  and  _190
REMARK   79  A    between atoms: _190  and  _191
REMARK   80  A    between atoms: _193  and  _195
REMARK   81  A    between atoms: _195  and  _196
REMARK   82  A    between atoms: _195  and  _198
REMARK   83  A    between atoms: _198  and  _199
REMARK   84  A    between atoms: _199  and  _200
REMARK   85  A    between atoms: _200  and  _201
REMARK   86  A    between atoms: _211  and  _212
REMARK   87  A    between atoms: _217  and  _219
REMARK   88  A    between atoms: _219  and  _220
REMARK   89  A    between atoms: _222  and  _224
REMARK   90  A    between atoms: _224  and  _225
REMARK   91  A    between atoms: _224  and  _227
REMARK   92  A    between atoms: _230  and  _232
REMARK   93  A    between atoms: _232  and  _233
REMARK   94  A    between atoms: _232  and  _235
REMARK   95  A    between atoms: _235  and  _236
REMARK   96  A    between atoms: _238  and  _240
REMARK   97  A    between atoms: _240  and  _241
REMARK   98  A    between atoms: _240  and  _243
REMARK   99  A    between atoms: _243  and  _244
REMARK  100  A    between atoms: _246  and  _248
REMARK  101  A    between atoms: _248  and  _249
REMARK  102  A    between atoms: _248  and  _251
REMARK  103  A    between atoms: _251  and  _252
REMARK  104  A    between atoms: _252  and  _253
REMARK  105  A    between atoms: _258  and  _260
REMARK  106  A    between atoms: _260  and  _261
REMARK  107  A    between atoms: _260  and  _263
REMARK  108  A    between atoms: _263  and  _264
REMARK  109  A    between atoms: _270  and  _272
REMARK  110  A    between atoms: _272  and  _273
REMARK  111  A    between atoms: _272  and  _275
REMARK  112  A    between atoms: _275  and  _276
REMARK  113  A    between atoms: _279  and  _281
REMARK  114  A    between atoms: _281  and  _282
REMARK  115  A    between atoms: _281  and  _284
REMARK  116  A    between atoms: _284  and  _285
REMARK  117  A    between atoms: _288  and  _290
REMARK  118  A    between atoms: _290  and  _291
REMARK  119  A    between atoms: _294  and  _296
REMARK  120  A    between atoms: _296  and  _297
REMARK  121  A    between atoms: _296  and  _299
REMARK  122  A    between atoms: _299  and  _300
REMARK  123  A    between atoms: _303  and  _305
REMARK  124  A    between atoms: _305  and  _306
REMARK  125  A    between atoms: _305  and  _308
REMARK  126  A    between atoms: _311  and  _313
REMARK  127  A    between atoms: _313  and  _314
REMARK  128  A    between atoms: _313  and  _316
REMARK  129  A    between atoms: _316  and  _317
REMARK  130  A    between atoms: _319  and  _321
REMARK  131  A    between atoms: _321  and  _322
REMARK  132  A    between atoms: _321  and  _324
REMARK  133  A    between atoms: _324  and  _325
REMARK  134  A    between atoms: _325  and  _326
REMARK  135  A    between atoms: _326  and  _327
REMARK  136  A    between atoms: _327  and  _328
REMARK  137  A    between atoms: _333  and  _334
REMARK  138  A    between atoms: _339  and  _341
REMARK  139  A    between atoms: _341  and  _342
REMARK  140  A    between atoms: _341  and  _344
REMARK  141  A    between atoms: _344  and  _345
REMARK  142  A    between atoms: _350  and  _351
REMARK  143  A    between atoms: _353  and  _355
REMARK  144  A    between atoms: _355  and  _356
REMARK  145  A    between atoms: _355  and  _358
REMARK  146  A    between atoms: _358  and  _359
REMARK  147  A    between atoms: _362  and  _364
REMARK  148  A    between atoms: _364  and  _365
REMARK  149  A    between atoms: _364  and  _367
REMARK  150  A    between atoms: _367  and  _368
REMARK  151  A    between atoms: _371  and  _373
REMARK  152  A    between atoms: _373  and  _374
REMARK  153  A    between atoms: _373  and  _376
REMARK  154  A    between atoms: _376  and  _377
REMARK  155  A    between atoms: _380  and  _382
REMARK  156  A    between atoms: _382  and  _383
REMARK  157  A    between atoms: _382  and  _385
REMARK  158  A    between atoms: _385  and  _386
REMARK  159  A    between atoms: _389  and  _391
REMARK  160  A    between atoms: _391  and  _392
REMARK  161  A    between atoms: _391  and  _394
REMARK  162  A    between atoms: _394  and  _395
REMARK  163  A    between atoms: _397  and  _399
REMARK  164  A    between atoms: _399  and  _400
REMARK  165  A    between atoms: _399  and  _402
REMARK  166  A    between atoms: _402  and  _403
REMARK  167  A    between atoms: _408  and  _409
REMARK  168  A    between atoms: _411  and  _413
REMARK  169  A    between atoms: _413  and  _414
REMARK  170  A    between atoms: _413  and  _416
REMARK  171  A    between atoms: _416  and  _417
REMARK  172  A    between atoms: _420  and  _422
REMARK  173  A    between atoms: _422  and  _423
REMARK  174  A    between atoms: _422  and  _425
REMARK  175  A    between atoms: _425  and  _426
REMARK  176  A    between atoms: _431  and  _433
REMARK  177  A    between atoms: _433  and  _434
REMARK  178  A    between atoms: _433  and  _436
REMARK  179  A    between atoms: _436  and  _437
REMARK  180  A    between atoms: _441  and  _442
REMARK  181  A    between atoms: _447  and  _449
REMARK  182  A    between atoms: _449  and  _450
REMARK  183  A    between atoms: _449  and  _452
REMARK  184  A    between atoms: _452  and  _453
REMARK  185  A    between atoms: _456  and  _458
REMARK  186  A    between atoms: _458  and  _459
REMARK  187  A    between atoms: _462  and  _464
REMARK  188  A    between atoms: _464  and  _465
REMARK  189  A    between atoms: _464  and  _467
REMARK  190  A    between atoms: _467  and  _468
REMARK  191  A    between atoms: _468  and  _469
REMARK  192  A    between atoms: _471  and  _473
REMARK  193  A    between atoms: _473  and  _474
REMARK  194  A    between atoms: _473  and  _476
REMARK  195  A    between atoms: _476  and  _477
REMARK  196  A    between atoms: _482  and  _484
REMARK  197  A    between atoms: _484  and  _485
REMARK  198  A    between atoms: _484  and  _487
REMARK  199  A    between atoms: _487  and  _488
REMARK  200  A    between atoms: _498  and  _500
REMARK  201  A    between atoms: _500  and  _501
REMARK  202  A    between atoms: _500  and  _503
REMARK  203  A    between atoms: _506  and  _508
REMARK  204  A    between atoms: _508  and  _509
REMARK  205  A    between atoms: _508  and  _511
REMARK  206  A    between atoms: _511  and  _512
REMARK  207  A    between atoms: _512  and  _513
REMARK  208  A    between atoms: _513  and  _514
REMARK  209  A    between atoms: _514  and  _515
REMARK  210  A    between atoms: _519  and  _521
REMARK  211  A    between atoms: _521  and  _522
REMARK  212  A    between atoms: _521  and  _524
REMARK  213  A    between atoms: _524  and  _525
REMARK  214  A    between atoms: _525  and  _526
REMARK  215  A    between atoms: _529  and  _531
REMARK  216  A    between atoms: _531  and  _532
REMARK  217  A    between atoms: _531  and  _534
REMARK  218  A    between atoms: _534  and  _535
REMARK  219  A    between atoms: _538  and  _540
REMARK  220  A    between atoms: _540  and  _541
REMARK  221  A    between atoms: _540  and  _543
REMARK  222  A    between atoms: _543  and  _544
REMARK  223  A    between atoms: _544  and  _545
REMARK  224  A    between atoms: _545  and  _546
REMARK  225  A    between atoms: _555  and  _557
REMARK  226  A    between atoms: _557  and  _558
REMARK  227  A    between atoms: _557  and  _560
REMARK  228  A    between atoms: _560  and  _561
REMARK  229  A    between atoms: _564  and  _566
REMARK  230  A    between atoms: _566  and  _567
REMARK  231  A    between atoms: _566  and  _569
REMARK  232  A    between atoms: _569  and  _570
REMARK  233  A    between atoms: _575  and  _577
REMARK  234  A    between atoms: _577  and  _578
REMARK  235  A    between atoms: _577  and  _580
REMARK  236  A    between atoms: _580  and  _581
REMARK  237  A    between atoms: _581  and  _582
REMARK  238  A    between atoms: _582  and  _583
REMARK  239  A    between atoms: _592  and  _594
REMARK  240  A    between atoms: _594  and  _595
REMARK  241  A    between atoms: _594  and  _597
REMARK  242  A    between atoms: _597  and  _598
REMARK  243  A    between atoms: _598  and  _599
REMARK  244  A    between atoms: _601  and  _603
REMARK  245  A    between atoms: _603  and  _604
REMARK  246  A    between atoms: _603  and  _606
REMARK  247  A    between atoms: _606  and  _607
REMARK  248  A    between atoms: _607  and  _608
REMARK  249  A    between atoms: _610  and  _612
REMARK  250  A    between atoms: _612  and  _613
REMARK  251  A    between atoms: _612  and  _615
REMARK  252  A    between atoms: _615  and  _616
REMARK  253  A    between atoms: _616  and  _617
REMARK  254  A    between atoms: _617  and  _618
REMARK  255  A    between atoms: _618  and  _619
REMARK  256  A    between atoms: _623  and  _625
REMARK  257  A    between atoms: _625  and  _626
REMARK  258  A    between atoms: _625  and  _628
REMARK  259  A    between atoms: _628  and  _629
REMARK                            x       y       z     vdW  Elec       q    Type
REMARK                         _______ _______ _______ _____ _____    ______ ____
ROOT
ATOM      1  O   HOH     1      57.506   3.986  25.413  0.00  0.00    +0.000 OA
ENDROOT
TORSDOF 0
REMARK  Name = ../refined-set-2016/2pq9/2pq9_pocket.pdb
REMARK  259 active torsions:
REMARK  status: ('A' for Active; 'I' for Inactive)
REMARK    1  A    between atoms: _1  and  _3
REMARK    2  A    between atoms: _3  and  _4
REMARK    3  A    between atoms: _3  and  _6
REMARK    4  A    between atoms: _6  and  _7
REMARK    5  A    between atoms: _9  and  _11
REMARK    6  A    between atoms: _11  and  _12
REMARK    7  A    between atoms: _11  and  _14
REMARK    8  A    between atoms: _14  and  _15
REMARK    9  A    between atoms: _15  and  _16
REMARK   10  A    between atoms: _16  and  _17
REMARK   11  A    between atoms: _17  and  _18
REMARK   12  A    between atoms: _22  and  _24
REMARK   13  A    between atoms: _24  and  _25
REMARK   14  A    between atoms: _24  and  _27
REMARK   15  A    between atoms: _27  and  _28
REMARK   16  A    between atoms: _30  and  _32
REMARK   17  A    between atoms: _32  and  _33
REMARK   18  A    between atoms: _32  and  _35
REMARK   19  A    between atoms: _38  and  _40
REMARK   20  A    between atoms: _40  and  _41
REMARK   21  A    between atoms: _40  and  _43
REMARK   22  A    between atoms: _43  and  _44
REMARK   23  A    between atoms: _46  and  _48
REMARK   24  A    between atoms: _48  and  _49
REMARK   25  A    between atoms: _48  and  _51
REMARK   26  A    between atoms: _51  and  _52
REMARK   27  A    between atoms: _57  and  _59
REMARK   28  A    between atoms: _59  and  _60
REMARK   29  A    between atoms: _59  and  _62
REMARK   30  A    between atoms: _62  and  _63
REMARK   31  A    between atoms: _63  and  _64
REMARK   32  A    between atoms: _64  and  _65
REMARK   33  A    between atoms: _74  and  _76
REMARK   34  A    between atoms: _76  and  _77
REMARK   35  A    between atoms: _76  and  _79
REMARK   36  A    between atoms: _79  and  _80
REMARK   37  A    between atoms: _83  and  _85
REMARK   38  A    between atoms: _85  and  _86
REMARK   39  A    between atoms: _85  and  _88
REMARK   40  A    between atoms: _88  and  _89
REMARK   41  A    between atoms: _92  and  _94
REMARK   42  A    between atoms: _94  and  _95
REMARK   43  A    between atoms: _97  and  _99
REMARK   44  A    between atoms: _99  and  _100
REMARK   45  A    between atoms: _99  and  _102
REMARK   46  A    between atoms: _102  and  _103
REMARK   47  A    between atoms: _108  and  _110
REMARK   48  A    between atoms: _110  and  _111
REMARK   49  A    between atoms: _114  and  _116
REMARK   50  A    between atoms: _116  and  _117
REMARK   51  A    between atoms: _119  and  _121
REMARK   52  A    between atoms: _121  and  _122
REMARK   53  A    between atoms: _121  and  _124
REMARK   54  A    between atoms: _124  and  _125
REMARK   55  A    between atoms: _128  and  _130
REMARK   56  A    between atoms: _130  and  _131
REMARK   57  A    between atoms: _134  and  _136
REMARK   58  A    between atoms: _136  and  _137
REMARK   59  A    between atoms: _136  and  _139
REMARK   60  A    between atoms: _139  and  _140
REMARK   61  A    between atoms: _140  and  _141
REMARK   62  A    between atoms: _143  and  _145
REMARK   63  A    between atoms: _145  and  _146
REMARK   64  A    between atoms: _145  and  _148
REMARK   65  A    between atoms: _148  and  _149
REMARK   66  A    between atoms: _149  and  _150
REMARK   67  A    between atoms: _150  and  _151
REMARK   68  A    between atoms: _161  and  _162
REMARK   69  A    between atoms: _167  and  _169
REMARK   70  A    between atoms: _169  and  _170
REMARK   71  A    between atoms: _169  and  _172
REMARK   72  A    between atoms: _172  and  _173
REMARK   73  A    between atoms: _173  and  _174
REMARK   74  A    between atoms: _174  and  _175
REMARK   75  A    between atoms: _184  and  _186
REMARK   76  A    between atoms: _186  and  _187
REMARK   77  A    between atoms: _186  and  _189
REMARK   78  A    between atoms: _189  and  _190
REMARK   79  A    between atoms: _190  and  _191
REMARK   80  A    between atoms: _193  and  _195
REMARK   81  A    between atoms: _195  and  _196
REMARK   82  A    between atoms: _195  and  _198
REMARK   83  A    between atoms: _198  and  _199
REMARK   84  A    between atoms: _199  and  _200
REMARK   85  A    between atoms: _200  and  _201
REMARK   86  A    between atoms: _211  and  _212
REMARK   87  A    between atoms: _217  and  _219
REMARK   88  A    between atoms: _219  and  _220
REMARK   89  A    between atoms: _222  and  _224
REMARK   90  A    between atoms: _224  and  _225
REMARK   91  A    between atoms: _224  and  _227
REMARK   92  A    between atoms: _230  and  _232
REMARK   93  A    between atoms: _232  and  _233
REMARK   94  A    between atoms: _232  and  _235
REMARK   95  A    between atoms: _235  and  _236
REMARK   96  A    between atoms: _238  and  _240
REMARK   97  A    between atoms: _240  and  _241
REMARK   98  A    between atoms: _240  and  _243
REMARK   99  A    between atoms: _243  and  _244
REMARK  100  A    between atoms: _246  and  _248
REMARK  101  A    between atoms: _248  and  _249
REMARK  102  A    between atoms: _248  and  _251
REMARK  103  A    between atoms: _251  and  _252
REMARK  104  A    between atoms: _252  and  _253
REMARK  105  A    between atoms: _258  and  _260
REMARK  106  A    between atoms: _260  and  _261
REMARK  107  A    between atoms: _260  and  _263
REMARK  108  A    between atoms: _263  and  _264
REMARK  109  A    between atoms: _270  and  _272
REMARK  110  A    between atoms: _272  and  _273
REMARK  111  A    between atoms: _272  and  _275
REMARK  112  A    between atoms: _275  and  _276
REMARK  113  A    between atoms: _279  and  _281
REMARK  114  A    between atoms: _281  and  _282
REMARK  115  A    between atoms: _281  and  _284
REMARK  116  A    between atoms: _284  and  _285
REMARK  117  A    between atoms: _288  and  _290
REMARK  118  A    between atoms: _290  and  _291
REMARK  119  A    between atoms: _294  and  _296
REMARK  120  A    between atoms: _296  and  _297
REMARK  121  A    between atoms: _296  and  _299
REMARK  122  A    between atoms: _299  and  _300
REMARK  123  A    between atoms: _303  and  _305
REMARK  124  A    between atoms: _305  and  _306
REMARK  125  A    between atoms: _305  and  _308
REMARK  126  A    between atoms: _311  and  _313
REMARK  127  A    between atoms: _313  and  _314
REMARK  128  A    between atoms: _313  and  _316
REMARK  129  A    between atoms: _316  and  _317
REMARK  130  A    between atoms: _319  and  _321
REMARK  131  A    between atoms: _321  and  _322
REMARK  132  A    between atoms: _321  and  _324
REMARK  133  A    between atoms: _324  and  _325
REMARK  134  A    between atoms: _325  and  _326
REMARK  135  A    between atoms: _326  and  _327
REMARK  136  A    between atoms: _327  and  _328
REMARK  137  A    between atoms: _333  and  _334
REMARK  138  A    between atoms: _339  and  _341
REMARK  139  A    between atoms: _341  and  _342
REMARK  140  A    between atoms: _341  and  _344
REMARK  141  A    between atoms: _344  and  _345
REMARK  142  A    between atoms: _350  and  _351
REMARK  143  A    between atoms: _353  and  _355
REMARK  144  A    between atoms: _355  and  _356
REMARK  145  A    between atoms: _355  and  _358
REMARK  146  A    between atoms: _358  and  _359
REMARK  147  A    between atoms: _362  and  _364
REMARK  148  A    between atoms: _364  and  _365
REMARK  149  A    between atoms: _364  and  _367
REMARK  150  A    between atoms: _367  and  _368
REMARK  151  A    between atoms: _371  and  _373
REMARK  152  A    between atoms: _373  and  _374
REMARK  153  A    between atoms: _373  and  _376
REMARK  154  A    between atoms: _376  and  _377
REMARK  155  A    between atoms: _380  and  _382
REMARK  156  A    between atoms: _382  and  _383
REMARK  157  A    between atoms: _382  and  _385
REMARK  158  A    between atoms: _385  and  _386
REMARK  159  A    between atoms: _389  and  _391
REMARK  160  A    between atoms: _391  and  _392
REMARK  161  A    between atoms: _391  and  _394
REMARK  162  A    between atoms: _394  and  _395
REMARK  163  A    between atoms: _397  and  _399
REMARK  164  A    between atoms: _399  and  _400
REMARK  165  A    between atoms: _399  and  _402
REMARK  166  A    between atoms: _402  and  _403
REMARK  167  A    between atoms: _408  and  _409
REMARK  168  A    between atoms: _411  and  _413
REMARK  169  A    between atoms: _413  and  _414
REMARK  170  A    between atoms: _413  and  _416
REMARK  171  A    between atoms: _416  and  _417
REMARK  172  A    between atoms: _420  and  _422
REMARK  173  A    between atoms: _422  and  _423
REMARK  174  A    between atoms: _422  and  _425
REMARK  175  A    between atoms: _425  and  _426
REMARK  176  A    between atoms: _431  and  _433
REMARK  177  A    between atoms: _433  and  _434
REMARK  178  A    between atoms: _433  and  _436
REMARK  179  A    between atoms: _436  and  _437
REMARK  180  A    between atoms: _441  and  _442
REMARK  181  A    between atoms: _447  and  _449
REMARK  182  A    between atoms: _449  and  _450
REMARK  183  A    between atoms: _449  and  _452
REMARK  184  A    between atoms: _452  and  _453
REMARK  185  A    between atoms: _456  and  _458
REMARK  186  A    between atoms: _458  and  _459
REMARK  187  A    between atoms: _462  and  _464
REMARK  188  A    between atoms: _464  and  _465
REMARK  189  A    between atoms: _464  and  _467
REMARK  190  A    between atoms: _467  and  _468
REMARK  191  A    between atoms: _468  and  _469
REMARK  192  A    between atoms: _471  and  _473
REMARK  193  A    between atoms: _473  and  _474
REMARK  194  A    between atoms: _473  and  _476
REMARK  195  A    between atoms: _476  and  _477
REMARK  196  A    between atoms: _482  and  _484
REMARK  197  A    between atoms: _484  and  _485
REMARK  198  A    between atoms: _484  and  _487
REMARK  199  A    between atoms: _487  and  _488
REMARK  200  A    between atoms: _498  and  _500
REMARK  201  A    between atoms: _500  and  _501
REMARK  202  A    between atoms: _500  and  _503
REMARK  203  A    between atoms: _506  and  _508
REMARK  204  A    between atoms: _508  and  _509
REMARK  205  A    between atoms: _508  and  _511
REMARK  206  A    between atoms: _511  and  _512
REMARK  207  A    between atoms: _512  and  _513
REMARK  208  A    between atoms: _513  and  _514
REMARK  209  A    between atoms: _514  and  _515
REMARK  210  A    between atoms: _519  and  _521
REMARK  211  A    between atoms: _521  and  _522
REMARK  212  A    between atoms: _521  and  _524
REMARK  213  A    between atoms: _524  and  _525
REMARK  214  A    between atoms: _525  and  _526
REMARK  215  A    between atoms: _529  and  _531
REMARK  216  A    between atoms: _531  and  _532
REMARK  217  A    between atoms: _531  and  _534
REMARK  218  A    between atoms: _534  and  _535
REMARK  219  A    between atoms: _538  and  _540
REMARK  220  A    between atoms: _540  and  _541
REMARK  221  A    between atoms: _540  and  _543
REMARK  222  A    between atoms: _543  and  _544
REMARK  223  A    between atoms: _544  and  _545
REMARK  224  A    between atoms: _545  and  _546
REMARK  225  A    between atoms: _555  and  _557
REMARK  226  A    between atoms: _557  and  _558
REMARK  227  A    between atoms: _557  and  _560
REMARK  228  A    between atoms: _560  and  _561
REMARK  229  A    between atoms: _564  and  _566
REMARK  230  A    between atoms: _566  and  _567
REMARK  231  A    between atoms: _566  and  _569
REMARK  232  A    between atoms: _569  and  _570
REMARK  233  A    between atoms: _575  and  _577
REMARK  234  A    between atoms: _577  and  _578
REMARK  235  A    between atoms: _577  and  _580
REMARK  236  A    between atoms: _580  and  _581
REMARK  237  A    between atoms: _581  and  _582
REMARK  238  A    between atoms: _582  and  _583
REMARK  239  A    between atoms: _592  and  _594
REMARK  240  A    between atoms: _594  and  _595
REMARK  241  A    between atoms: _594  and  _597
REMARK  242  A    between atoms: _597  and  _598
REMARK  243  A    between atoms: _598  and  _599
REMARK  244  A    between atoms: _601  and  _603
REMARK  245  A    between atoms: _603  and  _604
REMARK  246  A    between atoms: _603  and  _606
REMARK  247  A    between atoms: _606  and  _607
REMARK  248  A    between atoms: _607  and  _608
REMARK  249  A    between atoms: _610  and  _612
REMARK  250  A    between atoms: _612  and  _613
REMARK  251  A    between atoms: _612  and  _615
REMARK  252  A    between atoms: _615  and  _616
REMARK  253  A    between atoms: _616  and  _617
REMARK  254  A    between atoms: _617  and  _618
REMARK  255  A    between atoms: _618  and  _619
REMARK  256  A    between atoms: _623  and  _625
REMARK  257  A    between atoms: _625  and  _626
REMARK  258  A    between atoms: _625  and  _628
REMARK  259  A    between atoms: _628  and  _629
REMARK                            x       y       z     vdW  Elec       q    Type
REMARK                         _______ _______ _______ _____ _____    ______ ____
ROOT
ATOM      1  O   HOH     1      69.182  10.097  24.745  0.00  0.00    +0.000 OA
ENDROOT
TORSDOF 0
REMARK  Name = ../refined-set-2016/2pq9/2pq9_pocket.pdb
REMARK  259 active torsions:
REMARK  status: ('A' for Active; 'I' for Inactive)
REMARK    1  A    between atoms: _1  and  _3
REMARK    2  A    between atoms: _3  and  _4
REMARK    3  A    between atoms: _3  and  _6
REMARK    4  A    between atoms: _6  and  _7
REMARK    5  A    between atoms: _9  and  _11
REMARK    6  A    between atoms: _11  and  _12
REMARK    7  A    between atoms: _11  and  _14
REMARK    8  A    between atoms: _14  and  _15
REMARK    9  A    between atoms: _15  and  _16
REMARK   10  A    between atoms: _16  and  _17
REMARK   11  A    between atoms: _17  and  _18
REMARK   12  A    between atoms: _22  and  _24
REMARK   13  A    between atoms: _24  and  _25
REMARK   14  A    between atoms: _24  and  _27
REMARK   15  A    between atoms: _27  and  _28
REMARK   16  A    between atoms: _30  and  _32
REMARK   17  A    between atoms: _32  and  _33
REMARK   18  A    between atoms: _32  and  _35
REMARK   19  A    between atoms: _38  and  _40
REMARK   20  A    between atoms: _40  and  _41
REMARK   21  A    between atoms: _40  and  _43
REMARK   22  A    between atoms: _43  and  _44
REMARK   23  A    between atoms: _46  and  _48
REMARK   24  A    between atoms: _48  and  _49
REMARK   25  A    between atoms: _48  and  _51
REMARK   26  A    between atoms: _51  and  _52
REMARK   27  A    between atoms: _57  and  _59
REMARK   28  A    between atoms: _59  and  _60
REMARK   29  A    between atoms: _59  and  _62
REMARK   30  A    between atoms: _62  and  _63
REMARK   31  A    between atoms: _63  and  _64
REMARK   32  A    between atoms: _64  and  _65
REMARK   33  A    between atoms: _74  and  _76
REMARK   34  A    between atoms: _76  and  _77
REMARK   35  A    between atoms: _76  and  _79
REMARK   36  A    between atoms: _79  and  _80
REMARK   37  A    between atoms: _83  and  _85
REMARK   38  A    between atoms: _85  and  _86
REMARK   39  A    between atoms: _85  and  _88
REMARK   40  A    between atoms: _88  and  _89
REMARK   41  A    between atoms: _92  and  _94
REMARK   42  A    between atoms: _94  and  _95
REMARK   43  A    between atoms: _97  and  _99
REMARK   44  A    between atoms: _99  and  _100
REMARK   45  A    between atoms: _99  and  _102
REMARK   46  A    between atoms: _102  and  _103
REMARK   47  A    between atoms: _108  and  _110
REMARK   48  A    between atoms: _110  and  _111
REMARK   49  A    between atoms: _114  and  _116
REMARK   50  A    between atoms: _116  and  _117
REMARK   51  A    between atoms: _119  and  _121
REMARK   52  A    between atoms: _121  and  _122
REMARK   53  A    between atoms: _121  and  _124
REMARK   54  A    between atoms: _124  and  _125
REMARK   55  A    between atoms: _128  and  _130
REMARK   56  A    between atoms: _130  and  _131
REMARK   57  A    between atoms: _134  and  _136
REMARK   58  A    between atoms: _136  and  _137
REMARK   59  A    between atoms: _136  and  _139
REMARK   60  A    between atoms: _139  and  _140
REMARK   61  A    between atoms: _140  and  _141
REMARK   62  A    between atoms: _143  and  _145
REMARK   63  A    between atoms: _145  and  _146
REMARK   64  A    between atoms: _145  and  _148
REMARK   65  A    between atoms: _148  and  _149
REMARK   66  A    between atoms: _149  and  _150
REMARK   67  A    between atoms: _150  and  _151
REMARK   68  A    between atoms: _161  and  _162
REMARK   69  A    between atoms: _167  and  _169
REMARK   70  A    between atoms: _169  and  _170
REMARK   71  A    between atoms: _169  and  _172
REMARK   72  A    between atoms: _172  and  _173
REMARK   73  A    between atoms: _173  and  _174
REMARK   74  A    between atoms: _174  and  _175
REMARK   75  A    between atoms: _184  and  _186
REMARK   76  A    between atoms: _186  and  _187
REMARK   77  A    between atoms: _186  and  _189
REMARK   78  A    between atoms: _189  and  _190
REMARK   79  A    between atoms: _190  and  _191
REMARK   80  A    between atoms: _193  and  _195
REMARK   81  A    between atoms: _195  and  _196
REMARK   82  A    between atoms: _195  and  _198
REMARK   83  A    between atoms: _198  and  _199
REMARK   84  A    between atoms: _199  and  _200
REMARK   85  A    between atoms: _200  and  _201
REMARK   86  A    between atoms: _211  and  _212
REMARK   87  A    between atoms: _217  and  _219
REMARK   88  A    between atoms: _219  and  _220
REMARK   89  A    between atoms: _222  and  _224
REMARK   90  A    between atoms: _224  and  _225
REMARK   91  A    between atoms: _224  and  _227
REMARK   92  A    between atoms: _230  and  _232
REMARK   93  A    between atoms: _232  and  _233
REMARK   94  A    between atoms: _232  and  _235
REMARK   95  A    between atoms: _235  and  _236
REMARK   96  A    between atoms: _238  and  _240
REMARK   97  A    between atoms: _240  and  _241
REMARK   98  A    between atoms: _240  and  _243
REMARK   99  A    between atoms: _243  and  _244
REMARK  100  A    between atoms: _246  and  _248
REMARK  101  A    between atoms: _248  and  _249
REMARK  102  A    between atoms: _248  and  _251
REMARK  103  A    between atoms: _251  and  _252
REMARK  104  A    between atoms: _252  and  _253
REMARK  105  A    between atoms: _258  and  _260
REMARK  106  A    between atoms: _260  and  _261
REMARK  107  A    between atoms: _260  and  _263
REMARK  108  A    between atoms: _263  and  _264
REMARK  109  A    between atoms: _270  and  _272
REMARK  110  A    between atoms: _272  and  _273
REMARK  111  A    between atoms: _272  and  _275
REMARK  112  A    between atoms: _275  and  _276
REMARK  113  A    between atoms: _279  and  _281
REMARK  114  A    between atoms: _281  and  _282
REMARK  115  A    between atoms: _281  and  _284
REMARK  116  A    between atoms: _284  and  _285
REMARK  117  A    between atoms: _288  and  _290
REMARK  118  A    between atoms: _290  and  _291
REMARK  119  A    between atoms: _294  and  _296
REMARK  120  A    between atoms: _296  and  _297
REMARK  121  A    between atoms: _296  and  _299
REMARK  122  A    between atoms: _299  and  _300
REMARK  123  A    between atoms: _303  and  _305
REMARK  124  A    between atoms: _305  and  _306
REMARK  125  A    between atoms: _305  and  _308
REMARK  126  A    between atoms: _311  and  _313
REMARK  127  A    between atoms: _313  and  _314
REMARK  128  A    between atoms: _313  and  _316
REMARK  129  A    between atoms: _316  and  _317
REMARK  130  A    between atoms: _319  and  _321
REMARK  131  A    between atoms: _321  and  _322
REMARK  132  A    between atoms: _321  and  _324
REMARK  133  A    between atoms: _324  and  _325
REMARK  134  A    between atoms: _325  and  _326
REMARK  135  A    between atoms: _326  and  _327
REMARK  136  A    between atoms: _327  and  _328
REMARK  137  A    between atoms: _333  and  _334
REMARK  138  A    between atoms: _339  and  _341
REMARK  139  A    between atoms: _341  and  _342
REMARK  140  A    between atoms: _341  and  _344
REMARK  141  A    between atoms: _344  and  _345
REMARK  142  A    between atoms: _350  and  _351
REMARK  143  A    between atoms: _353  and  _355
REMARK  144  A    between atoms: _355  and  _356
REMARK  145  A    between atoms: _355  and  _358
REMARK  146  A    between atoms: _358  and  _359
REMARK  147  A    between atoms: _362  and  _364
REMARK  148  A    between atoms: _364  and  _365
REMARK  149  A    between atoms: _364  and  _367
REMARK  150  A    between atoms: _367  and  _368
REMARK  151  A    between atoms: _371  and  _373
REMARK  152  A    between atoms: _373  and  _374
REMARK  153  A    between atoms: _373  and  _376
REMARK  154  A    between atoms: _376  and  _377
REMARK  155  A    between atoms: _380  and  _382
REMARK  156  A    between atoms: _382  and  _383
REMARK  157  A    between atoms: _382  and  _385
REMARK  158  A    between atoms: _385  and  _386
REMARK  159  A    between atoms: _389  and  _391
REMARK  160  A    between atoms: _391  and  _392
REMARK  161  A    between atoms: _391  and  _394
REMARK  162  A    between atoms: _394  and  _395
REMARK  163  A    between atoms: _397  and  _399
REMARK  164  A    between atoms: _399  and  _400
REMARK  165  A    between atoms: _399  and  _402
REMARK  166  A    between atoms: _402  and  _403
REMARK  167  A    between atoms: _408  and  _409
REMARK  168  A    between atoms: _411  and  _413
REMARK  169  A    between atoms: _413  and  _414
REMARK  170  A    between atoms: _413  and  _416
REMARK  171  A    between atoms: _416  and  _417
REMARK  172  A    between atoms: _420  and  _422
REMARK  173  A    between atoms: _422  and  _423
REMARK  174  A    between atoms: _422  and  _425
REMARK  175  A    between atoms: _425  and  _426
REMARK  176  A    between atoms: _431  and  _433
REMARK  177  A    between atoms: _433  and  _434
REMARK  178  A    between atoms: _433  and  _436
REMARK  179  A    between atoms: _436  and  _437
REMARK  180  A    between atoms: _441  and  _442
REMARK  181  A    between atoms: _447  and  _449
REMARK  182  A    between atoms: _449  and  _450
REMARK  183  A    between atoms: _449  and  _452
REMARK  184  A    between atoms: _452  and  _453
REMARK  185  A    between atoms: _456  and  _458
REMARK  186  A    between atoms: _458  and  _459
REMARK  187  A    between atoms: _462  and  _464
REMARK  188  A    between atoms: _464  and  _465
REMARK  189  A    between atoms: _464  and  _467
REMARK  190  A    between atoms: _467  and  _468
REMARK  191  A    between atoms: _468  and  _469
REMARK  192  A    between atoms: _471  and  _473
REMARK  193  A    between atoms: _473  and  _474
REMARK  194  A    between atoms: _473  and  _476
REMARK  195  A    between atoms: _476  and  _477
REMARK  196  A    between atoms: _482  and  _484
REMARK  197  A    between atoms: _484  and  _485
REMARK  198  A    between atoms: _484  and  _487
REMARK  199  A    between atoms: _487  and  _488
REMARK  200  A    between atoms: _498  and  _500
REMARK  201  A    between atoms: _500  and  _501
REMARK  202  A    between atoms: _500  and  _503
REMARK  203  A    between atoms: _506  and  _508
REMARK  204  A    between atoms: _508  and  _509
REMARK  205  A    between atoms: _508  and  _511
REMARK  206  A    between atoms: _511  and  _512
REMARK  207  A    between atoms: _512  and  _513
REMARK  208  A    between atoms: _513  and  _514
REMARK  209  A    between atoms: _514  and  _515
REMARK  210  A    between atoms: _519  and  _521
REMARK  211  A    between atoms: _521  and  _522
REMARK  212  A    between atoms: _521  and  _524
REMARK  213  A    between atoms: _524  and  _525
REMARK  214  A    between atoms: _525  and  _526
REMARK  215  A    between atoms: _529  and  _531
REMARK  216  A    between atoms: _531  and  _532
REMARK  217  A    between atoms: _531  and  _534
REMARK  218  A    between atoms: _534  and  _535
REMARK  219  A    between atoms: _538  and  _540
REMARK  220  A    between atoms: _540  and  _541
REMARK  221  A    between atoms: _540  and  _543
REMARK  222  A    between atoms: _543  and  _544
REMARK  223  A    between atoms: _544  and  _545
REMARK  224  A    between atoms: _545  and  _546
REMARK  225  A    between atoms: _555  and  _557
REMARK  226  A    between atoms: _557  and  _558
REMARK  227  A    between atoms: _557  and  _560
REMARK  228  A    between atoms: _560  and  _561
REMARK  229  A    between atoms: _564  and  _566
REMARK  230  A    between atoms: _566  and  _567
REMARK  231  A    between atoms: _566  and  _569
REMARK  232  A    between atoms: _569  and  _570
REMARK  233  A    between atoms: _575  and  _577
REMARK  234  A    between atoms: _577  and  _578
REMARK  235  A    between atoms: _577  and  _580
REMARK  236  A    between atoms: _580  and  _581
REMARK  237  A    between atoms: _581  and  _582
REMARK  238  A    between atoms: _582  and  _583
REMARK  239  A    between atoms: _592  and  _594
REMARK  240  A    between atoms: _594  and  _595
REMARK  241  A    between atoms: _594  and  _597
REMARK  242  A    between atoms: _597  and  _598
REMARK  243  A    between atoms: _598  and  _599
REMARK  244  A    between atoms: _601  and  _603
REMARK  245  A    between atoms: _603  and  _604
REMARK  246  A    between atoms: _603  and  _606
REMARK  247  A    between atoms: _606  and  _607
REMARK  248  A    between atoms: _607  and  _608
REMARK  249  A    between atoms: _610  and  _612
REMARK  250  A    between atoms: _612  and  _613
REMARK  251  A    between atoms: _612  and  _615
REMARK  252  A    between atoms: _615  and  _616
REMARK  253  A    between atoms: _616  and  _617
REMARK  254  A    between atoms: _617  and  _618
REMARK  255  A    between atoms: _618  and  _619
REMARK  256  A    between atoms: _623  and  _625
REMARK  257  A    between atoms: _625  and  _626
REMARK  258  A    between atoms: _625  and  _628
REMARK  259  A    between atoms: _628  and  _629
REMARK                            x       y       z     vdW  Elec       q    Type
REMARK                         _______ _______ _______ _____ _____    ______ ____
ROOT
ATOM      1  O   HOH     1      48.712   8.127  21.765  0.00  0.00    +0.000 OA
ENDROOT
TORSDOF 0
REMARK  Name = ../refined-set-2016/2pq9/2pq9_pocket.pdb
REMARK  259 active torsions:
REMARK  status: ('A' for Active; 'I' for Inactive)
REMARK    1  A    between atoms: _1  and  _3
REMARK    2  A    between atoms: _3  and  _4
REMARK    3  A    between atoms: _3  and  _6
REMARK    4  A    between atoms: _6  and  _7
REMARK    5  A    between atoms: _9  and  _11
REMARK    6  A    between atoms: _11  and  _12
REMARK    7  A    between atoms: _11  and  _14
REMARK    8  A    between atoms: _14  and  _15
REMARK    9  A    between atoms: _15  and  _16
REMARK   10  A    between atoms: _16  and  _17
REMARK   11  A    between atoms: _17  and  _18
REMARK   12  A    between atoms: _22  and  _24
REMARK   13  A    between atoms: _24  and  _25
REMARK   14  A    between atoms: _24  and  _27
REMARK   15  A    between atoms: _27  and  _28
REMARK   16  A    between atoms: _30  and  _32
REMARK   17  A    between atoms: _32  and  _33
REMARK   18  A    between atoms: _32  and  _35
REMARK   19  A    between atoms: _38  and  _40
REMARK   20  A    between atoms: _40  and  _41
REMARK   21  A    between atoms: _40  and  _43
REMARK   22  A    between atoms: _43  and  _44
REMARK   23  A    between atoms: _46  and  _48
REMARK   24  A    between atoms: _48  and  _49
REMARK   25  A    between atoms: _48  and  _51
REMARK   26  A    between atoms: _51  and  _52
REMARK   27  A    between atoms: _57  and  _59
REMARK   28  A    between atoms: _59  and  _60
REMARK   29  A    between atoms: _59  and  _62
REMARK   30  A    between atoms: _62  and  _63
REMARK   31  A    between atoms: _63  and  _64
REMARK   32  A    between atoms: _64  and  _65
REMARK   33  A    between atoms: _74  and  _76
REMARK   34  A    between atoms: _76  and  _77
REMARK   35  A    between atoms: _76  and  _79
REMARK   36  A    between atoms: _79  and  _80
REMARK   37  A    between atoms: _83  and  _85
REMARK   38  A    between atoms: _85  and  _86
REMARK   39  A    between atoms: _85  and  _88
REMARK   40  A    between atoms: _88  and  _89
REMARK   41  A    between atoms: _92  and  _94
REMARK   42  A    between atoms: _94  and  _95
REMARK   43  A    between atoms: _97  and  _99
REMARK   44  A    between atoms: _99  and  _100
REMARK   45  A    between atoms: _99  and  _102
REMARK   46  A    between atoms: _102  and  _103
REMARK   47  A    between atoms: _108  and  _110
REMARK   48  A    between atoms: _110  and  _111
REMARK   49  A    between atoms: _114  and  _116
REMARK   50  A    between atoms: _116  and  _117
REMARK   51  A    between atoms: _119  and  _121
REMARK   52  A    between atoms: _121  and  _122
REMARK   53  A    between atoms: _121  and  _124
REMARK   54  A    between atoms: _124  and  _125
REMARK   55  A    between atoms: _128  and  _130
REMARK   56  A    between atoms: _130  and  _131
REMARK   57  A    between atoms: _134  and  _136
REMARK   58  A    between atoms: _136  and  _137
REMARK   59  A    between atoms: _136  and  _139
REMARK   60  A    between atoms: _139  and  _140
REMARK   61  A    between atoms: _140  and  _141
REMARK   62  A    between atoms: _143  and  _145
REMARK   63  A    between atoms: _145  and  _146
REMARK   64  A    between atoms: _145  and  _148
REMARK   65  A    between atoms: _148  and  _149
REMARK   66  A    between atoms: _149  and  _150
REMARK   67  A    between atoms: _150  and  _151
REMARK   68  A    between atoms: _161  and  _162
REMARK   69  A    between atoms: _167  and  _169
REMARK   70  A    between atoms: _169  and  _170
REMARK   71  A    between atoms: _169  and  _172
REMARK   72  A    between atoms: _172  and  _173
REMARK   73  A    between atoms: _173  and  _174
REMARK   74  A    between atoms: _174  and  _175
REMARK   75  A    between atoms: _184  and  _186
REMARK   76  A    between atoms: _186  and  _187
REMARK   77  A    between atoms: _186  and  _189
REMARK   78  A    between atoms: _189  and  _190
REMARK   79  A    between atoms: _190  and  _191
REMARK   80  A    between atoms: _193  and  _195
REMARK   81  A    between atoms: _195  and  _196
REMARK   82  A    between atoms: _195  and  _198
REMARK   83  A    between atoms: _198  and  _199
REMARK   84  A    between atoms: _199  and  _200
REMARK   85  A    between atoms: _200  and  _201
REMARK   86  A    between atoms: _211  and  _212
REMARK   87  A    between atoms: _217  and  _219
REMARK   88  A    between atoms: _219  and  _220
REMARK   89  A    between atoms: _222  and  _224
REMARK   90  A    between atoms: _224  and  _225
REMARK   91  A    between atoms: _224  and  _227
REMARK   92  A    between atoms: _230  and  _232
REMARK   93  A    between atoms: _232  and  _233
REMARK   94  A    between atoms: _232  and  _235
REMARK   95  A    between atoms: _235  and  _236
REMARK   96  A    between atoms: _238  and  _240
REMARK   97  A    between atoms: _240  and  _241
REMARK   98  A    between atoms: _240  and  _243
REMARK   99  A    between atoms: _243  and  _244
REMARK  100  A    between atoms: _246  and  _248
REMARK  101  A    between atoms: _248  and  _249
REMARK  102  A    between atoms: _248  and  _251
REMARK  103  A    between atoms: _251  and  _252
REMARK  104  A    between atoms: _252  and  _253
REMARK  105  A    between atoms: _258  and  _260
REMARK  106  A    between atoms: _260  and  _261
REMARK  107  A    between atoms: _260  and  _263
REMARK  108  A    between atoms: _263  and  _264
REMARK  109  A    between atoms: _270  and  _272
REMARK  110  A    between atoms: _272  and  _273
REMARK  111  A    between atoms: _272  and  _275
REMARK  112  A    between atoms: _275  and  _276
REMARK  113  A    between atoms: _279  and  _281
REMARK  114  A    between atoms: _281  and  _282
REMARK  115  A    between atoms: _281  and  _284
REMARK  116  A    between atoms: _284  and  _285
REMARK  117  A    between atoms: _288  and  _290
REMARK  118  A    between atoms: _290  and  _291
REMARK  119  A    between atoms: _294  and  _296
REMARK  120  A    between atoms: _296  and  _297
REMARK  121  A    between atoms: _296  and  _299
REMARK  122  A    between atoms: _299  and  _300
REMARK  123  A    between atoms: _303  and  _305
REMARK  124  A    between atoms: _305  and  _306
REMARK  125  A    between atoms: _305  and  _308
REMARK  126  A    between atoms: _311  and  _313
REMARK  127  A    between atoms: _313  and  _314
REMARK  128  A    between atoms: _313  and  _316
REMARK  129  A    between atoms: _316  and  _317
REMARK  130  A    between atoms: _319  and  _321
REMARK  131  A    between atoms: _321  and  _322
REMARK  132  A    between atoms: _321  and  _324
REMARK  133  A    between atoms: _324  and  _325
REMARK  134  A    between atoms: _325  and  _326
REMARK  135  A    between atoms: _326  and  _327
REMARK  136  A    between atoms: _327  and  _328
REMARK  137  A    between atoms: _333  and  _334
REMARK  138  A    between atoms: _339  and  _341
REMARK  139  A    between atoms: _341  and  _342
REMARK  140  A    between atoms: _341  and  _344
REMARK  141  A    between atoms: _344  and  _345
REMARK  142  A    between atoms: _350  and  _351
REMARK  143  A    between atoms: _353  and  _355
REMARK  144  A    between atoms: _355  and  _356
REMARK  145  A    between atoms: _355  and  _358
REMARK  146  A    between atoms: _358  and  _359
REMARK  147  A    between atoms: _362  and  _364
REMARK  148  A    between atoms: _364  and  _365
REMARK  149  A    between atoms: _364  and  _367
REMARK  150  A    between atoms: _367  and  _368
REMARK  151  A    between atoms: _371  and  _373
REMARK  152  A    between atoms: _373  and  _374
REMARK  153  A    between atoms: _373  and  _376
REMARK  154  A    between atoms: _376  and  _377
REMARK  155  A    between atoms: _380  and  _382
REMARK  156  A    between atoms: _382  and  _383
REMARK  157  A    between atoms: _382  and  _385
REMARK  158  A    between atoms: _385  and  _386
REMARK  159  A    between atoms: _389  and  _391
REMARK  160  A    between atoms: _391  and  _392
REMARK  161  A    between atoms: _391  and  _394
REMARK  162  A    between atoms: _394  and  _395
REMARK  163  A    between atoms: _397  and  _399
REMARK  164  A    between atoms: _399  and  _400
REMARK  165  A    between atoms: _399  and  _402
REMARK  166  A    between atoms: _402  and  _403
REMARK  167  A    between atoms: _408  and  _409
REMARK  168  A    between atoms: _411  and  _413
REMARK  169  A    between atoms: _413  and  _414
REMARK  170  A    between atoms: _413  and  _416
REMARK  171  A    between atoms: _416  and  _417
REMARK  172  A    between atoms: _420  and  _422
REMARK  173  A    between atoms: _422  and  _423
REMARK  174  A    between atoms: _422  and  _425
REMARK  175  A    between atoms: _425  and  _426
REMARK  176  A    between atoms: _431  and  _433
REMARK  177  A    between atoms: _433  and  _434
REMARK  178  A    between atoms: _433  and  _436
REMARK  179  A    between atoms: _436  and  _437
REMARK  180  A    between atoms: _441  and  _442
REMARK  181  A    between atoms: _447  and  _449
REMARK  182  A    between atoms: _449  and  _450
REMARK  183  A    between atoms: _449  and  _452
REMARK  184  A    between atoms: _452  and  _453
REMARK  185  A    between atoms: _456  and  _458
REMARK  186  A    between atoms: _458  and  _459
REMARK  187  A    between atoms: _462  and  _464
REMARK  188  A    between atoms: _464  and  _465
REMARK  189  A    between atoms: _464  and  _467
REMARK  190  A    between atoms: _467  and  _468
REMARK  191  A    between atoms: _468  and  _469
REMARK  192  A    between atoms: _471  and  _473
REMARK  193  A    between atoms: _473  and  _474
REMARK  194  A    between atoms: _473  and  _476
REMARK  195  A    between atoms: _476  and  _477
REMARK  196  A    between atoms: _482  and  _484
REMARK  197  A    between atoms: _484  and  _485
REMARK  198  A    between atoms: _484  and  _487
REMARK  199  A    between atoms: _487  and  _488
REMARK  200  A    between atoms: _498  and  _500
REMARK  201  A    between atoms: _500  and  _501
REMARK  202  A    between atoms: _500  and  _503
REMARK  203  A    between atoms: _506  and  _508
REMARK  204  A    between atoms: _508  and  _509
REMARK  205  A    between atoms: _508  and  _511
REMARK  206  A    between atoms: _511  and  _512
REMARK  207  A    between atoms: _512  and  _513
REMARK  208  A    between atoms: _513  and  _514
REMARK  209  A    between atoms: _514  and  _515
REMARK  210  A    between atoms: _519  and  _521
REMARK  211  A    between atoms: _521  and  _522
REMARK  212  A    between atoms: _521  and  _524
REMARK  213  A    between atoms: _524  and  _525
REMARK  214  A    between atoms: _525  and  _526
REMARK  215  A    between atoms: _529  and  _531
REMARK  216  A    between atoms: _531  and  _532
REMARK  217  A    between atoms: _531  and  _534
REMARK  218  A    between atoms: _534  and  _535
REMARK  219  A    between atoms: _538  and  _540
REMARK  220  A    between atoms: _540  and  _541
REMARK  221  A    between atoms: _540  and  _543
REMARK  222  A    between atoms: _543  and  _544
REMARK  223  A    between atoms: _544  and  _545
REMARK  224  A    between atoms: _545  and  _546
REMARK  225  A    between atoms: _555  and  _557
REMARK  226  A    between atoms: _557  and  _558
REMARK  227  A    between atoms: _557  and  _560
REMARK  228  A    between atoms: _560  and  _561
REMARK  229  A    between atoms: _564  and  _566
REMARK  230  A    between atoms: _566  and  _567
REMARK  231  A    between atoms: _566  and  _569
REMARK  232  A    between atoms: _569  and  _570
REMARK  233  A    between atoms: _575  and  _577
REMARK  234  A    between atoms: _577  and  _578
REMARK  235  A    between atoms: _577  and  _580
REMARK  236  A    between atoms: _580  and  _581
REMARK  237  A    between atoms: _581  and  _582
REMARK  238  A    between atoms: _582  and  _583
REMARK  239  A    between atoms: _592  and  _594
REMARK  240  A    between atoms: _594  and  _595
REMARK  241  A    between atoms: _594  and  _597
REMARK  242  A    between atoms: _597  and  _598
REMARK  243  A    between atoms: _598  and  _599
REMARK  244  A    between atoms: _601  and  _603
REMARK  245  A    between atoms: _603  and  _604
REMARK  246  A    between atoms: _603  and  _606
REMARK  247  A    between atoms: _606  and  _607
REMARK  248  A    between atoms: _607  and  _608
REMARK  249  A    between atoms: _610  and  _612
REMARK  250  A    between atoms: _612  and  _613
REMARK  251  A    between atoms: _612  and  _615
REMARK  252  A    between atoms: _615  and  _616
REMARK  253  A    between atoms: _616  and  _617
REMARK  254  A    between atoms: _617  and  _618
REMARK  255  A    between atoms: _618  and  _619
REMARK  256  A    between atoms: _623  and  _625
REMARK  257  A    between atoms: _625  and  _626
REMARK  258  A    between atoms: _625  and  _628
REMARK  259  A    between atoms: _628  and  _629
REMARK                            x       y       z     vdW  Elec       q    Type
REMARK                         _______ _______ _______ _____ _____    ______ ____
ROOT
ATOM      1  O   HOH     1      68.088   6.089  30.380  0.00  0.00    +0.000 OA
ENDROOT
TORSDOF 0
REMARK  Name = ../refined-set-2016/2pq9/2pq9_pocket.pdb
REMARK  259 active torsions:
REMARK  status: ('A' for Active; 'I' for Inactive)
REMARK    1  A    between atoms: _1  and  _3
REMARK    2  A    between atoms: _3  and  _4
REMARK    3  A    between atoms: _3  and  _6
REMARK    4  A    between atoms: _6  and  _7
REMARK    5  A    between atoms: _9  and  _11
REMARK    6  A    between atoms: _11  and  _12
REMARK    7  A    between atoms: _11  and  _14
REMARK    8  A    between atoms: _14  and  _15
REMARK    9  A    between atoms: _15  and  _16
REMARK   10  A    between atoms: _16  and  _17
REMARK   11  A    between atoms: _17  and  _18
REMARK   12  A    between atoms: _22  and  _24
REMARK   13  A    between atoms: _24  and  _25
REMARK   14  A    between atoms: _24  and  _27
REMARK   15  A    between atoms: _27  and  _28
REMARK   16  A    between atoms: _30  and  _32
REMARK   17  A    between atoms: _32  and  _33
REMARK   18  A    between atoms: _32  and  _35
REMARK   19  A    between atoms: _38  and  _40
REMARK   20  A    between atoms: _40  and  _41
REMARK   21  A    between atoms: _40  and  _43
REMARK   22  A    between atoms: _43  and  _44
REMARK   23  A    between atoms: _46  and  _48
REMARK   24  A    between atoms: _48  and  _49
REMARK   25  A    between atoms: _48  and  _51
REMARK   26  A    between atoms: _51  and  _52
REMARK   27  A    between atoms: _57  and  _59
REMARK   28  A    between atoms: _59  and  _60
REMARK   29  A    between atoms: _59  and  _62
REMARK   30  A    between atoms: _62  and  _63
REMARK   31  A    between atoms: _63  and  _64
REMARK   32  A    between atoms: _64  and  _65
REMARK   33  A    between atoms: _74  and  _76
REMARK   34  A    between atoms: _76  and  _77
REMARK   35  A    between atoms: _76  and  _79
REMARK   36  A    between atoms: _79  and  _80
REMARK   37  A    between atoms: _83  and  _85
REMARK   38  A    between atoms: _85  and  _86
REMARK   39  A    between atoms: _85  and  _88
REMARK   40  A    between atoms: _88  and  _89
REMARK   41  A    between atoms: _92  and  _94
REMARK   42  A    between atoms: _94  and  _95
REMARK   43  A    between atoms: _97  and  _99
REMARK   44  A    between atoms: _99  and  _100
REMARK   45  A    between atoms: _99  and  _102
REMARK   46  A    between atoms: _102  and  _103
REMARK   47  A    between atoms: _108  and  _110
REMARK   48  A    between atoms: _110  and  _111
REMARK   49  A    between atoms: _114  and  _116
REMARK   50  A    between atoms: _116  and  _117
REMARK   51  A    between atoms: _119  and  _121
REMARK   52  A    between atoms: _121  and  _122
REMARK   53  A    between atoms: _121  and  _124
REMARK   54  A    between atoms: _124  and  _125
REMARK   55  A    between atoms: _128  and  _130
REMARK   56  A    between atoms: _130  and  _131
REMARK   57  A    between atoms: _134  and  _136
REMARK   58  A    between atoms: _136  and  _137
REMARK   59  A    between atoms: _136  and  _139
REMARK   60  A    between atoms: _139  and  _140
REMARK   61  A    between atoms: _140  and  _141
REMARK   62  A    between atoms: _143  and  _145
REMARK   63  A    between atoms: _145  and  _146
REMARK   64  A    between atoms: _145  and  _148
REMARK   65  A    between atoms: _148  and  _149
REMARK   66  A    between atoms: _149  and  _150
REMARK   67  A    between atoms: _150  and  _151
REMARK   68  A    between atoms: _161  and  _162
REMARK   69  A    between atoms: _167  and  _169
REMARK   70  A    between atoms: _169  and  _170
REMARK   71  A    between atoms: _169  and  _172
REMARK   72  A    between atoms: _172  and  _173
REMARK   73  A    between atoms: _173  and  _174
REMARK   74  A    between atoms: _174  and  _175
REMARK   75  A    between atoms: _184  and  _186
REMARK   76  A    between atoms: _186  and  _187
REMARK   77  A    between atoms: _186  and  _189
REMARK   78  A    between atoms: _189  and  _190
REMARK   79  A    between atoms: _190  and  _191
REMARK   80  A    between atoms: _193  and  _195
REMARK   81  A    between atoms: _195  and  _196
REMARK   82  A    between atoms: _195  and  _198
REMARK   83  A    between atoms: _198  and  _199
REMARK   84  A    between atoms: _199  and  _200
REMARK   85  A    between atoms: _200  and  _201
REMARK   86  A    between atoms: _211  and  _212
REMARK   87  A    between atoms: _217  and  _219
REMARK   88  A    between atoms: _219  and  _220
REMARK   89  A    between atoms: _222  and  _224
REMARK   90  A    between atoms: _224  and  _225
REMARK   91  A    between atoms: _224  and  _227
REMARK   92  A    between atoms: _230  and  _232
REMARK   93  A    between atoms: _232  and  _233
REMARK   94  A    between atoms: _232  and  _235
REMARK   95  A    between atoms: _235  and  _236
REMARK   96  A    between atoms: _238  and  _240
REMARK   97  A    between atoms: _240  and  _241
REMARK   98  A    between atoms: _240  and  _243
REMARK   99  A    between atoms: _243  and  _244
REMARK  100  A    between atoms: _246  and  _248
REMARK  101  A    between atoms: _248  and  _249
REMARK  102  A    between atoms: _248  and  _251
REMARK  103  A    between atoms: _251  and  _252
REMARK  104  A    between atoms: _252  and  _253
REMARK  105  A    between atoms: _258  and  _260
REMARK  106  A    between atoms: _260  and  _261
REMARK  107  A    between atoms: _260  and  _263
REMARK  108  A    between atoms: _263  and  _264
REMARK  109  A    between atoms: _270  and  _272
REMARK  110  A    between atoms: _272  and  _273
REMARK  111  A    between atoms: _272  and  _275
REMARK  112  A    between atoms: _275  and  _276
REMARK  113  A    between atoms: _279  and  _281
REMARK  114  A    between atoms: _281  and  _282
REMARK  115  A    between atoms: _281  and  _284
REMARK  116  A    between atoms: _284  and  _285
REMARK  117  A    between atoms: _288  and  _290
REMARK  118  A    between atoms: _290  and  _291
REMARK  119  A    between atoms: _294  and  _296
REMARK  120  A    between atoms: _296  and  _297
REMARK  121  A    between atoms: _296  and  _299
REMARK  122  A    between atoms: _299  and  _300
REMARK  123  A    between atoms: _303  and  _305
REMARK  124  A    between atoms: _305  and  _306
REMARK  125  A    between atoms: _305  and  _308
REMARK  126  A    between atoms: _311  and  _313
REMARK  127  A    between atoms: _313  and  _314
REMARK  128  A    between atoms: _313  and  _316
REMARK  129  A    between atoms: _316  and  _317
REMARK  130  A    between atoms: _319  and  _321
REMARK  131  A    between atoms: _321  and  _322
REMARK  132  A    between atoms: _321  and  _324
REMARK  133  A    between atoms: _324  and  _325
REMARK  134  A    between atoms: _325  and  _326
REMARK  135  A    between atoms: _326  and  _327
REMARK  136  A    between atoms: _327  and  _328
REMARK  137  A    between atoms: _333  and  _334
REMARK  138  A    between atoms: _339  and  _341
REMARK  139  A    between atoms: _341  and  _342
REMARK  140  A    between atoms: _341  and  _344
REMARK  141  A    between atoms: _344  and  _345
REMARK  142  A    between atoms: _350  and  _351
REMARK  143  A    between atoms: _353  and  _355
REMARK  144  A    between atoms: _355  and  _356
REMARK  145  A    between atoms: _355  and  _358
REMARK  146  A    between atoms: _358  and  _359
REMARK  147  A    between atoms: _362  and  _364
REMARK  148  A    between atoms: _364  and  _365
REMARK  149  A    between atoms: _364  and  _367
REMARK  150  A    between atoms: _367  and  _368
REMARK  151  A    between atoms: _371  and  _373
REMARK  152  A    between atoms: _373  and  _374
REMARK  153  A    between atoms: _373  and  _376
REMARK  154  A    between atoms: _376  and  _377
REMARK  155  A    between atoms: _380  and  _382
REMARK  156  A    between atoms: _382  and  _383
REMARK  157  A    between atoms: _382  and  _385
REMARK  158  A    between atoms: _385  and  _386
REMARK  159  A    between atoms: _389  and  _391
REMARK  160  A    between atoms: _391  and  _392
REMARK  161  A    between atoms: _391  and  _394
REMARK  162  A    between atoms: _394  and  _395
REMARK  163  A    between atoms: _397  and  _399
REMARK  164  A    between atoms: _399  and  _400
REMARK  165  A    between atoms: _399  and  _402
REMARK  166  A    between atoms: _402  and  _403
REMARK  167  A    between atoms: _408  and  _409
REMARK  168  A    between atoms: _411  and  _413
REMARK  169  A    between atoms: _413  and  _414
REMARK  170  A    between atoms: _413  and  _416
REMARK  171  A    between atoms: _416  and  _417
REMARK  172  A    between atoms: _420  and  _422
REMARK  173  A    between atoms: _422  and  _423
REMARK  174  A    between atoms: _422  and  _425
REMARK  175  A    between atoms: _425  and  _426
REMARK  176  A    between atoms: _431  and  _433
REMARK  177  A    between atoms: _433  and  _434
REMARK  178  A    between atoms: _433  and  _436
REMARK  179  A    between atoms: _436  and  _437
REMARK  180  A    between atoms: _441  and  _442
REMARK  181  A    between atoms: _447  and  _449
REMARK  182  A    between atoms: _449  and  _450
REMARK  183  A    between atoms: _449  and  _452
REMARK  184  A    between atoms: _452  and  _453
REMARK  185  A    between atoms: _456  and  _458
REMARK  186  A    between atoms: _458  and  _459
REMARK  187  A    between atoms: _462  and  _464
REMARK  188  A    between atoms: _464  and  _465
REMARK  189  A    between atoms: _464  and  _467
REMARK  190  A    between atoms: _467  and  _468
REMARK  191  A    between atoms: _468  and  _469
REMARK  192  A    between atoms: _471  and  _473
REMARK  193  A    between atoms: _473  and  _474
REMARK  194  A    between atoms: _473  and  _476
REMARK  195  A    between atoms: _476  and  _477
REMARK  196  A    between atoms: _482  and  _484
REMARK  197  A    between atoms: _484  and  _485
REMARK  198  A    between atoms: _484  and  _487
REMARK  199  A    between atoms: _487  and  _488
REMARK  200  A    between atoms: _498  and  _500
REMARK  201  A    between atoms: _500  and  _501
REMARK  202  A    between atoms: _500  and  _503
REMARK  203  A    between atoms: _506  and  _508
REMARK  204  A    between atoms: _508  and  _509
REMARK  205  A    between atoms: _508  and  _511
REMARK  206  A    between atoms: _511  and  _512
REMARK  207  A    between atoms: _512  and  _513
REMARK  208  A    between atoms: _513  and  _514
REMARK  209  A    between atoms: _514  and  _515
REMARK  210  A    between atoms: _519  and  _521
REMARK  211  A    between atoms: _521  and  _522
REMARK  212  A    between atoms: _521  and  _524
REMARK  213  A    between atoms: _524  and  _525
REMARK  214  A    between atoms: _525  and  _526
REMARK  215  A    between atoms: _529  and  _531
REMARK  216  A    between atoms: _531  and  _532
REMARK  217  A    between atoms: _531  and  _534
REMARK  218  A    between atoms: _534  and  _535
REMARK  219  A    between atoms: _538  and  _540
REMARK  220  A    between atoms: _540  and  _541
REMARK  221  A    between atoms: _540  and  _543
REMARK  222  A    between atoms: _543  and  _544
REMARK  223  A    between atoms: _544  and  _545
REMARK  224  A    between atoms: _545  and  _546
REMARK  225  A    between atoms: _555  and  _557
REMARK  226  A    between atoms: _557  and  _558
REMARK  227  A    between atoms: _557  and  _560
REMARK  228  A    between atoms: _560  and  _561
REMARK  229  A    between atoms: _564  and  _566
REMARK  230  A    between atoms: _566  and  _567
REMARK  231  A    between atoms: _566  and  _569
REMARK  232  A    between atoms: _569  and  _570
REMARK  233  A    between atoms: _575  and  _577
REMARK  234  A    between atoms: _577  and  _578
REMARK  235  A    between atoms: _577  and  _580
REMARK  236  A    between atoms: _580  and  _581
REMARK  237  A    between atoms: _581  and  _582
REMARK  238  A    between atoms: _582  and  _583
REMARK  239  A    between atoms: _592  and  _594
REMARK  240  A    between atoms: _594  and  _595
REMARK  241  A    between atoms: _594  and  _597
REMARK  242  A    between atoms: _597  and  _598
REMARK  243  A    between atoms: _598  and  _599
REMARK  244  A    between atoms: _601  and  _603
REMARK  245  A    between atoms: _603  and  _604
REMARK  246  A    between atoms: _603  and  _606
REMARK  247  A    between atoms: _606  and  _607
REMARK  248  A    between atoms: _607  and  _608
REMARK  249  A    between atoms: _610  and  _612
REMARK  250  A    between atoms: _612  and  _613
REMARK  251  A    between atoms: _612  and  _615
REMARK  252  A    between atoms: _615  and  _616
REMARK  253  A    between atoms: _616  and  _617
REMARK  254  A    between atoms: _617  and  _618
REMARK  255  A    between atoms: _618  and  _619
REMARK  256  A    between atoms: _623  and  _625
REMARK  257  A    between atoms: _625  and  _626
REMARK  258  A    between atoms: _625  and  _628
REMARK  259  A    between atoms: _628  and  _629
REMARK                            x       y       z     vdW  Elec       q    Type
REMARK                         _______ _______ _______ _____ _____    ______ ____
ROOT
ATOM      1  O   HOH     1      59.518  17.313  20.536  0.00  0.00    +0.000 OA
ENDROOT
TORSDOF 0
REMARK  Name = ../refined-set-2016/2pq9/2pq9_pocket.pdb
REMARK  259 active torsions:
REMARK  status: ('A' for Active; 'I' for Inactive)
REMARK    1  A    between atoms: _1  and  _3
REMARK    2  A    between atoms: _3  and  _4
REMARK    3  A    between atoms: _3  and  _6
REMARK    4  A    between atoms: _6  and  _7
REMARK    5  A    between atoms: _9  and  _11
REMARK    6  A    between atoms: _11  and  _12
REMARK    7  A    between atoms: _11  and  _14
REMARK    8  A    between atoms: _14  and  _15
REMARK    9  A    between atoms: _15  and  _16
REMARK   10  A    between atoms: _16  and  _17
REMARK   11  A    between atoms: _17  and  _18
REMARK   12  A    between atoms: _22  and  _24
REMARK   13  A    between atoms: _24  and  _25
REMARK   14  A    between atoms: _24  and  _27
REMARK   15  A    between atoms: _27  and  _28
REMARK   16  A    between atoms: _30  and  _32
REMARK   17  A    between atoms: _32  and  _33
REMARK   18  A    between atoms: _32  and  _35
REMARK   19  A    between atoms: _38  and  _40
REMARK   20  A    between atoms: _40  and  _41
REMARK   21  A    between atoms: _40  and  _43
REMARK   22  A    between atoms: _43  and  _44
REMARK   23  A    between atoms: _46  and  _48
REMARK   24  A    between atoms: _48  and  _49
REMARK   25  A    between atoms: _48  and  _51
REMARK   26  A    between atoms: _51  and  _52
REMARK   27  A    between atoms: _57  and  _59
REMARK   28  A    between atoms: _59  and  _60
REMARK   29  A    between atoms: _59  and  _62
REMARK   30  A    between atoms: _62  and  _63
REMARK   31  A    between atoms: _63  and  _64
REMARK   32  A    between atoms: _64  and  _65
REMARK   33  A    between atoms: _74  and  _76
REMARK   34  A    between atoms: _76  and  _77
REMARK   35  A    between atoms: _76  and  _79
REMARK   36  A    between atoms: _79  and  _80
REMARK   37  A    between atoms: _83  and  _85
REMARK   38  A    between atoms: _85  and  _86
REMARK   39  A    between atoms: _85  and  _88
REMARK   40  A    between atoms: _88  and  _89
REMARK   41  A    between atoms: _92  and  _94
REMARK   42  A    between atoms: _94  and  _95
REMARK   43  A    between atoms: _97  and  _99
REMARK   44  A    between atoms: _99  and  _100
REMARK   45  A    between atoms: _99  and  _102
REMARK   46  A    between atoms: _102  and  _103
REMARK   47  A    between atoms: _108  and  _110
REMARK   48  A    between atoms: _110  and  _111
REMARK   49  A    between atoms: _114  and  _116
REMARK   50  A    between atoms: _116  and  _117
REMARK   51  A    between atoms: _119  and  _121
REMARK   52  A    between atoms: _121  and  _122
REMARK   53  A    between atoms: _121  and  _124
REMARK   54  A    between atoms: _124  and  _125
REMARK   55  A    between atoms: _128  and  _130
REMARK   56  A    between atoms: _130  and  _131
REMARK   57  A    between atoms: _134  and  _136
REMARK   58  A    between atoms: _136  and  _137
REMARK   59  A    between atoms: _136  and  _139
REMARK   60  A    between atoms: _139  and  _140
REMARK   61  A    between atoms: _140  and  _141
REMARK   62  A    between atoms: _143  and  _145
REMARK   63  A    between atoms: _145  and  _146
REMARK   64  A    between atoms: _145  and  _148
REMARK   65  A    between atoms: _148  and  _149
REMARK   66  A    between atoms: _149  and  _150
REMARK   67  A    between atoms: _150  and  _151
REMARK   68  A    between atoms: _161  and  _162
REMARK   69  A    between atoms: _167  and  _169
REMARK   70  A    between atoms: _169  and  _170
REMARK   71  A    between atoms: _169  and  _172
REMARK   72  A    between atoms: _172  and  _173
REMARK   73  A    between atoms: _173  and  _174
REMARK   74  A    between atoms: _174  and  _175
REMARK   75  A    between atoms: _184  and  _186
REMARK   76  A    between atoms: _186  and  _187
REMARK   77  A    between atoms: _186  and  _189
REMARK   78  A    between atoms: _189  and  _190
REMARK   79  A    between atoms: _190  and  _191
REMARK   80  A    between atoms: _193  and  _195
REMARK   81  A    between atoms: _195  and  _196
REMARK   82  A    between atoms: _195  and  _198
REMARK   83  A    between atoms: _198  and  _199
REMARK   84  A    between atoms: _199  and  _200
REMARK   85  A    between atoms: _200  and  _201
REMARK   86  A    between atoms: _211  and  _212
REMARK   87  A    between atoms: _217  and  _219
REMARK   88  A    between atoms: _219  and  _220
REMARK   89  A    between atoms: _222  and  _224
REMARK   90  A    between atoms: _224  and  _225
REMARK   91  A    between atoms: _224  and  _227
REMARK   92  A    between atoms: _230  and  _232
REMARK   93  A    between atoms: _232  and  _233
REMARK   94  A    between atoms: _232  and  _235
REMARK   95  A    between atoms: _235  and  _236
REMARK   96  A    between atoms: _238  and  _240
REMARK   97  A    between atoms: _240  and  _241
REMARK   98  A    between atoms: _240  and  _243
REMARK   99  A    between atoms: _243  and  _244
REMARK  100  A    between atoms: _246  and  _248
REMARK  101  A    between atoms: _248  and  _249
REMARK  102  A    between atoms: _248  and  _251
REMARK  103  A    between atoms: _251  and  _252
REMARK  104  A    between atoms: _252  and  _253
REMARK  105  A    between atoms: _258  and  _260
REMARK  106  A    between atoms: _260  and  _261
REMARK  107  A    between atoms: _260  and  _263
REMARK  108  A    between atoms: _263  and  _264
REMARK  109  A    between atoms: _270  and  _272
REMARK  110  A    between atoms: _272  and  _273
REMARK  111  A    between atoms: _272  and  _275
REMARK  112  A    between atoms: _275  and  _276
REMARK  113  A    between atoms: _279  and  _281
REMARK  114  A    between atoms: _281  and  _282
REMARK  115  A    between atoms: _281  and  _284
REMARK  116  A    between atoms: _284  and  _285
REMARK  117  A    between atoms: _288  and  _290
REMARK  118  A    between atoms: _290  and  _291
REMARK  119  A    between atoms: _294  and  _296
REMARK  120  A    between atoms: _296  and  _297
REMARK  121  A    between atoms: _296  and  _299
REMARK  122  A    between atoms: _299  and  _300
REMARK  123  A    between atoms: _303  and  _305
REMARK  124  A    between atoms: _305  and  _306
REMARK  125  A    between atoms: _305  and  _308
REMARK  126  A    between atoms: _311  and  _313
REMARK  127  A    between atoms: _313  and  _314
REMARK  128  A    between atoms: _313  and  _316
REMARK  129  A    between atoms: _316  and  _317
REMARK  130  A    between atoms: _319  and  _321
REMARK  131  A    between atoms: _321  and  _322
REMARK  132  A    between atoms: _321  and  _324
REMARK  133  A    between atoms: _324  and  _325
REMARK  134  A    between atoms: _325  and  _326
REMARK  135  A    between atoms: _326  and  _327
REMARK  136  A    between atoms: _327  and  _328
REMARK  137  A    between atoms: _333  and  _334
REMARK  138  A    between atoms: _339  and  _341
REMARK  139  A    between atoms: _341  and  _342
REMARK  140  A    between atoms: _341  and  _344
REMARK  141  A    between atoms: _344  and  _345
REMARK  142  A    between atoms: _350  and  _351
REMARK  143  A    between atoms: _353  and  _355
REMARK  144  A    between atoms: _355  and  _356
REMARK  145  A    between atoms: _355  and  _358
REMARK  146  A    between atoms: _358  and  _359
REMARK  147  A    between atoms: _362  and  _364
REMARK  148  A    between atoms: _364  and  _365
REMARK  149  A    between atoms: _364  and  _367
REMARK  150  A    between atoms: _367  and  _368
REMARK  151  A    between atoms: _371  and  _373
REMARK  152  A    between atoms: _373  and  _374
REMARK  153  A    between atoms: _373  and  _376
REMARK  154  A    between atoms: _376  and  _377
REMARK  155  A    between atoms: _380  and  _382
REMARK  156  A    between atoms: _382  and  _383
REMARK  157  A    between atoms: _382  and  _385
REMARK  158  A    between atoms: _385  and  _386
REMARK  159  A    between atoms: _389  and  _391
REMARK  160  A    between atoms: _391  and  _392
REMARK  161  A    between atoms: _391  and  _394
REMARK  162  A    between atoms: _394  and  _395
REMARK  163  A    between atoms: _397  and  _399
REMARK  164  A    between atoms: _399  and  _400
REMARK  165  A    between atoms: _399  and  _402
REMARK  166  A    between atoms: _402  and  _403
REMARK  167  A    between atoms: _408  and  _409
REMARK  168  A    between atoms: _411  and  _413
REMARK  169  A    between atoms: _413  and  _414
REMARK  170  A    between atoms: _413  and  _416
REMARK  171  A    between atoms: _416  and  _417
REMARK  172  A    between atoms: _420  and  _422
REMARK  173  A    between atoms: _422  and  _423
REMARK  174  A    between atoms: _422  and  _425
REMARK  175  A    between atoms: _425  and  _426
REMARK  176  A    between atoms: _431  and  _433
REMARK  177  A    between atoms: _433  and  _434
REMARK  178  A    between atoms: _433  and  _436
REMARK  179  A    between atoms: _436  and  _437
REMARK  180  A    between atoms: _441  and  _442
REMARK  181  A    between atoms: _447  and  _449
REMARK  182  A    between atoms: _449  and  _450
REMARK  183  A    between atoms: _449  and  _452
REMARK  184  A    between atoms: _452  and  _453
REMARK  185  A    between atoms: _456  and  _458
REMARK  186  A    between atoms: _458  and  _459
REMARK  187  A    between atoms: _462  and  _464
REMARK  188  A    between atoms: _464  and  _465
REMARK  189  A    between atoms: _464  and  _467
REMARK  190  A    between atoms: _467  and  _468
REMARK  191  A    between atoms: _468  and  _469
REMARK  192  A    between atoms: _471  and  _473
REMARK  193  A    between atoms: _473  and  _474
REMARK  194  A    between atoms: _473  and  _476
REMARK  195  A    between atoms: _476  and  _477
REMARK  196  A    between atoms: _482  and  _484
REMARK  197  A    between atoms: _484  and  _485
REMARK  198  A    between atoms: _484  and  _487
REMARK  199  A    between atoms: _487  and  _488
REMARK  200  A    between atoms: _498  and  _500
REMARK  201  A    between atoms: _500  and  _501
REMARK  202  A    between atoms: _500  and  _503
REMARK  203  A    between atoms: _506  and  _508
REMARK  204  A    between atoms: _508  and  _509
REMARK  205  A    between atoms: _508  and  _511
REMARK  206  A    between atoms: _511  and  _512
REMARK  207  A    between atoms: _512  and  _513
REMARK  208  A    between atoms: _513  and  _514
REMARK  209  A    between atoms: _514  and  _515
REMARK  210  A    between atoms: _519  and  _521
REMARK  211  A    between atoms: _521  and  _522
REMARK  212  A    between atoms: _521  and  _524
REMARK  213  A    between atoms: _524  and  _525
REMARK  214  A    between atoms: _525  and  _526
REMARK  215  A    between atoms: _529  and  _531
REMARK  216  A    between atoms: _531  and  _532
REMARK  217  A    between atoms: _531  and  _534
REMARK  218  A    between atoms: _534  and  _535
REMARK  219  A    between atoms: _538  and  _540
REMARK  220  A    between atoms: _540  and  _541
REMARK  221  A    between atoms: _540  and  _543
REMARK  222  A    between atoms: _543  and  _544
REMARK  223  A    between atoms: _544  and  _545
REMARK  224  A    between atoms: _545  and  _546
REMARK  225  A    between atoms: _555  and  _557
REMARK  226  A    between atoms: _557  and  _558
REMARK  227  A    between atoms: _557  and  _560
REMARK  228  A    between atoms: _560  and  _561
REMARK  229  A    between atoms: _564  and  _566
REMARK  230  A    between atoms: _566  and  _567
REMARK  231  A    between atoms: _566  and  _569
REMARK  232  A    between atoms: _569  and  _570
REMARK  233  A    between atoms: _575  and  _577
REMARK  234  A    between atoms: _577  and  _578
REMARK  235  A    between atoms: _577  and  _580
REMARK  236  A    between atoms: _580  and  _581
REMARK  237  A    between atoms: _581  and  _582
REMARK  238  A    between atoms: _582  and  _583
REMARK  239  A    between atoms: _592  and  _594
REMARK  240  A    between atoms: _594  and  _595
REMARK  241  A    between atoms: _594  and  _597
REMARK  242  A    between atoms: _597  and  _598
REMARK  243  A    between atoms: _598  and  _599
REMARK  244  A    between atoms: _601  and  _603
REMARK  245  A    between atoms: _603  and  _604
REMARK  246  A    between atoms: _603  and  _606
REMARK  247  A    between atoms: _606  and  _607
REMARK  248  A    between atoms: _607  and  _608
REMARK  249  A    between atoms: _610  and  _612
REMARK  250  A    between atoms: _612  and  _613
REMARK  251  A    between atoms: _612  and  _615
REMARK  252  A    between atoms: _615  and  _616
REMARK  253  A    between atoms: _616  and  _617
REMARK  254  A    between atoms: _617  and  _618
REMARK  255  A    between atoms: _618  and  _619
REMARK  256  A    between atoms: _623  and  _625
REMARK  257  A    between atoms: _625  and  _626
REMARK  258  A    between atoms: _625  and  _628
REMARK  259  A    between atoms: _628  and  _629
REMARK                            x       y       z     vdW  Elec       q    Type
REMARK                         _______ _______ _______ _____ _____    ______ ____
ROOT
ATOM      1  O   HOH     1      49.988   2.298  31.525  0.00  0.00    +0.000 OA
ENDROOT
TORSDOF 0
REMARK  Name = ../refined-set-2016/2pq9/2pq9_pocket.pdb
REMARK  259 active torsions:
REMARK  status: ('A' for Active; 'I' for Inactive)
REMARK    1  A    between atoms: _1  and  _3
REMARK    2  A    between atoms: _3  and  _4
REMARK    3  A    between atoms: _3  and  _6
REMARK    4  A    between atoms: _6  and  _7
REMARK    5  A    between atoms: _9  and  _11
REMARK    6  A    between atoms: _11  and  _12
REMARK    7  A    between atoms: _11  and  _14
REMARK    8  A    between atoms: _14  and  _15
REMARK    9  A    between atoms: _15  and  _16
REMARK   10  A    between atoms: _16  and  _17
REMARK   11  A    between atoms: _17  and  _18
REMARK   12  A    between atoms: _22  and  _24
REMARK   13  A    between atoms: _24  and  _25
REMARK   14  A    between atoms: _24  and  _27
REMARK   15  A    between atoms: _27  and  _28
REMARK   16  A    between atoms: _30  and  _32
REMARK   17  A    between atoms: _32  and  _33
REMARK   18  A    between atoms: _32  and  _35
REMARK   19  A    between atoms: _38  and  _40
REMARK   20  A    between atoms: _40  and  _41
REMARK   21  A    between atoms: _40  and  _43
REMARK   22  A    between atoms: _43  and  _44
REMARK   23  A    between atoms: _46  and  _48
REMARK   24  A    between atoms: _48  and  _49
REMARK   25  A    between atoms: _48  and  _51
REMARK   26  A    between atoms: _51  and  _52
REMARK   27  A    between atoms: _57  and  _59
REMARK   28  A    between atoms: _59  and  _60
REMARK   29  A    between atoms: _59  and  _62
REMARK   30  A    between atoms: _62  and  _63
REMARK   31  A    between atoms: _63  and  _64
REMARK   32  A    between atoms: _64  and  _65
REMARK   33  A    between atoms: _74  and  _76
REMARK   34  A    between atoms: _76  and  _77
REMARK   35  A    between atoms: _76  and  _79
REMARK   36  A    between atoms: _79  and  _80
REMARK   37  A    between atoms: _83  and  _85
REMARK   38  A    between atoms: _85  and  _86
REMARK   39  A    between atoms: _85  and  _88
REMARK   40  A    between atoms: _88  and  _89
REMARK   41  A    between atoms: _92  and  _94
REMARK   42  A    between atoms: _94  and  _95
REMARK   43  A    between atoms: _97  and  _99
REMARK   44  A    between atoms: _99  and  _100
REMARK   45  A    between atoms: _99  and  _102
REMARK   46  A    between atoms: _102  and  _103
REMARK   47  A    between atoms: _108  and  _110
REMARK   48  A    between atoms: _110  and  _111
REMARK   49  A    between atoms: _114  and  _116
REMARK   50  A    between atoms: _116  and  _117
REMARK   51  A    between atoms: _119  and  _121
REMARK   52  A    between atoms: _121  and  _122
REMARK   53  A    between atoms: _121  and  _124
REMARK   54  A    between atoms: _124  and  _125
REMARK   55  A    between atoms: _128  and  _130
REMARK   56  A    between atoms: _130  and  _131
REMARK   57  A    between atoms: _134  and  _136
REMARK   58  A    between atoms: _136  and  _137
REMARK   59  A    between atoms: _136  and  _139
REMARK   60  A    between atoms: _139  and  _140
REMARK   61  A    between atoms: _140  and  _141
REMARK   62  A    between atoms: _143  and  _145
REMARK   63  A    between atoms: _145  and  _146
REMARK   64  A    between atoms: _145  and  _148
REMARK   65  A    between atoms: _148  and  _149
REMARK   66  A    between atoms: _149  and  _150
REMARK   67  A    between atoms: _150  and  _151
REMARK   68  A    between atoms: _161  and  _162
REMARK   69  A    between atoms: _167  and  _169
REMARK   70  A    between atoms: _169  and  _170
REMARK   71  A    between atoms: _169  and  _172
REMARK   72  A    between atoms: _172  and  _173
REMARK   73  A    between atoms: _173  and  _174
REMARK   74  A    between atoms: _174  and  _175
REMARK   75  A    between atoms: _184  and  _186
REMARK   76  A    between atoms: _186  and  _187
REMARK   77  A    between atoms: _186  and  _189
REMARK   78  A    between atoms: _189  and  _190
REMARK   79  A    between atoms: _190  and  _191
REMARK   80  A    between atoms: _193  and  _195
REMARK   81  A    between atoms: _195  and  _196
REMARK   82  A    between atoms: _195  and  _198
REMARK   83  A    between atoms: _198  and  _199
REMARK   84  A    between atoms: _199  and  _200
REMARK   85  A    between atoms: _200  and  _201
REMARK   86  A    between atoms: _211  and  _212
REMARK   87  A    between atoms: _217  and  _219
REMARK   88  A    between atoms: _219  and  _220
REMARK   89  A    between atoms: _222  and  _224
REMARK   90  A    between atoms: _224  and  _225
REMARK   91  A    between atoms: _224  and  _227
REMARK   92  A    between atoms: _230  and  _232
REMARK   93  A    between atoms: _232  and  _233
REMARK   94  A    between atoms: _232  and  _235
REMARK   95  A    between atoms: _235  and  _236
REMARK   96  A    between atoms: _238  and  _240
REMARK   97  A    between atoms: _240  and  _241
REMARK   98  A    between atoms: _240  and  _243
REMARK   99  A    between atoms: _243  and  _244
REMARK  100  A    between atoms: _246  and  _248
REMARK  101  A    between atoms: _248  and  _249
REMARK  102  A    between atoms: _248  and  _251
REMARK  103  A    between atoms: _251  and  _252
REMARK  104  A    between atoms: _252  and  _253
REMARK  105  A    between atoms: _258  and  _260
REMARK  106  A    between atoms: _260  and  _261
REMARK  107  A    between atoms: _260  and  _263
REMARK  108  A    between atoms: _263  and  _264
REMARK  109  A    between atoms: _270  and  _272
REMARK  110  A    between atoms: _272  and  _273
REMARK  111  A    between atoms: _272  and  _275
REMARK  112  A    between atoms: _275  and  _276
REMARK  113  A    between atoms: _279  and  _281
REMARK  114  A    between atoms: _281  and  _282
REMARK  115  A    between atoms: _281  and  _284
REMARK  116  A    between atoms: _284  and  _285
REMARK  117  A    between atoms: _288  and  _290
REMARK  118  A    between atoms: _290  and  _291
REMARK  119  A    between atoms: _294  and  _296
REMARK  120  A    between atoms: _296  and  _297
REMARK  121  A    between atoms: _296  and  _299
REMARK  122  A    between atoms: _299  and  _300
REMARK  123  A    between atoms: _303  and  _305
REMARK  124  A    between atoms: _305  and  _306
REMARK  125  A    between atoms: _305  and  _308
REMARK  126  A    between atoms: _311  and  _313
REMARK  127  A    between atoms: _313  and  _314
REMARK  128  A    between atoms: _313  and  _316
REMARK  129  A    between atoms: _316  and  _317
REMARK  130  A    between atoms: _319  and  _321
REMARK  131  A    between atoms: _321  and  _322
REMARK  132  A    between atoms: _321  and  _324
REMARK  133  A    between atoms: _324  and  _325
REMARK  134  A    between atoms: _325  and  _326
REMARK  135  A    between atoms: _326  and  _327
REMARK  136  A    between atoms: _327  and  _328
REMARK  137  A    between atoms: _333  and  _334
REMARK  138  A    between atoms: _339  and  _341
REMARK  139  A    between atoms: _341  and  _342
REMARK  140  A    between atoms: _341  and  _344
REMARK  141  A    between atoms: _344  and  _345
REMARK  142  A    between atoms: _350  and  _351
REMARK  143  A    between atoms: _353  and  _355
REMARK  144  A    between atoms: _355  and  _356
REMARK  145  A    between atoms: _355  and  _358
REMARK  146  A    between atoms: _358  and  _359
REMARK  147  A    between atoms: _362  and  _364
REMARK  148  A    between atoms: _364  and  _365
REMARK  149  A    between atoms: _364  and  _367
REMARK  150  A    between atoms: _367  and  _368
REMARK  151  A    between atoms: _371  and  _373
REMARK  152  A    between atoms: _373  and  _374
REMARK  153  A    between atoms: _373  and  _376
REMARK  154  A    between atoms: _376  and  _377
REMARK  155  A    between atoms: _380  and  _382
REMARK  156  A    between atoms: _382  and  _383
REMARK  157  A    between atoms: _382  and  _385
REMARK  158  A    between atoms: _385  and  _386
REMARK  159  A    between atoms: _389  and  _391
REMARK  160  A    between atoms: _391  and  _392
REMARK  161  A    between atoms: _391  and  _394
REMARK  162  A    between atoms: _394  and  _395
REMARK  163  A    between atoms: _397  and  _399
REMARK  164  A    between atoms: _399  and  _400
REMARK  165  A    between atoms: _399  and  _402
REMARK  166  A    between atoms: _402  and  _403
REMARK  167  A    between atoms: _408  and  _409
REMARK  168  A    between atoms: _411  and  _413
REMARK  169  A    between atoms: _413  and  _414
REMARK  170  A    between atoms: _413  and  _416
REMARK  171  A    between atoms: _416  and  _417
REMARK  172  A    between atoms: _420  and  _422
REMARK  173  A    between atoms: _422  and  _423
REMARK  174  A    between atoms: _422  and  _425
REMARK  175  A    between atoms: _425  and  _426
REMARK  176  A    between atoms: _431  and  _433
REMARK  177  A    between atoms: _433  and  _434
REMARK  178  A    between atoms: _433  and  _436
REMARK  179  A    between atoms: _436  and  _437
REMARK  180  A    between atoms: _441  and  _442
REMARK  181  A    between atoms: _447  and  _449
REMARK  182  A    between atoms: _449  and  _450
REMARK  183  A    between atoms: _449  and  _452
REMARK  184  A    between atoms: _452  and  _453
REMARK  185  A    between atoms: _456  and  _458
REMARK  186  A    between atoms: _458  and  _459
REMARK  187  A    between atoms: _462  and  _464
REMARK  188  A    between atoms: _464  and  _465
REMARK  189  A    between atoms: _464  and  _467
REMARK  190  A    between atoms: _467  and  _468
REMARK  191  A    between atoms: _468  and  _469
REMARK  192  A    between atoms: _471  and  _473
REMARK  193  A    between atoms: _473  and  _474
REMARK  194  A    between atoms: _473  and  _476
REMARK  195  A    between atoms: _476  and  _477
REMARK  196  A    between atoms: _482  and  _484
REMARK  197  A    between atoms: _484  and  _485
REMARK  198  A    between atoms: _484  and  _487
REMARK  199  A    between atoms: _487  and  _488
REMARK  200  A    between atoms: _498  and  _500
REMARK  201  A    between atoms: _500  and  _501
REMARK  202  A    between atoms: _500  and  _503
REMARK  203  A    between atoms: _506  and  _508
REMARK  204  A    between atoms: _508  and  _509
REMARK  205  A    between atoms: _508  and  _511
REMARK  206  A    between atoms: _511  and  _512
REMARK  207  A    between atoms: _512  and  _513
REMARK  208  A    between atoms: _513  and  _514
REMARK  209  A    between atoms: _514  and  _515
REMARK  210  A    between atoms: _519  and  _521
REMARK  211  A    between atoms: _521  and  _522
REMARK  212  A    between atoms: _521  and  _524
REMARK  213  A    between atoms: _524  and  _525
REMARK  214  A    between atoms: _525  and  _526
REMARK  215  A    between atoms: _529  and  _531
REMARK  216  A    between atoms: _531  and  _532
REMARK  217  A    between atoms: _531  and  _534
REMARK  218  A    between atoms: _534  and  _535
REMARK  219  A    between atoms: _538  and  _540
REMARK  220  A    between atoms: _540  and  _541
REMARK  221  A    between atoms: _540  and  _543
REMARK  222  A    between atoms: _543  and  _544
REMARK  223  A    between atoms: _544  and  _545
REMARK  224  A    between atoms: _545  and  _546
REMARK  225  A    between atoms: _555  and  _557
REMARK  226  A    between atoms: _557  and  _558
REMARK  227  A    between atoms: _557  and  _560
REMARK  228  A    between atoms: _560  and  _561
REMARK  229  A    between atoms: _564  and  _566
REMARK  230  A    between atoms: _566  and  _567
REMARK  231  A    between atoms: _566  and  _569
REMARK  232  A    between atoms: _569  and  _570
REMARK  233  A    between atoms: _575  and  _577
REMARK  234  A    between atoms: _577  and  _578
REMARK  235  A    between atoms: _577  and  _580
REMARK  236  A    between atoms: _580  and  _581
REMARK  237  A    between atoms: _581  and  _582
REMARK  238  A    between atoms: _582  and  _583
REMARK  239  A    between atoms: _592  and  _594
REMARK  240  A    between atoms: _594  and  _595
REMARK  241  A    between atoms: _594  and  _597
REMARK  242  A    between atoms: _597  and  _598
REMARK  243  A    between atoms: _598  and  _599
REMARK  244  A    between atoms: _601  and  _603
REMARK  245  A    between atoms: _603  and  _604
REMARK  246  A    between atoms: _603  and  _606
REMARK  247  A    between atoms: _606  and  _607
REMARK  248  A    between atoms: _607  and  _608
REMARK  249  A    between atoms: _610  and  _612
REMARK  250  A    between atoms: _612  and  _613
REMARK  251  A    between atoms: _612  and  _615
REMARK  252  A    between atoms: _615  and  _616
REMARK  253  A    between atoms: _616  and  _617
REMARK  254  A    between atoms: _617  and  _618
REMARK  255  A    between atoms: _618  and  _619
REMARK  256  A    between atoms: _623  and  _625
REMARK  257  A    between atoms: _625  and  _626
REMARK  258  A    between atoms: _625  and  _628
REMARK  259  A    between atoms: _628  and  _629
REMARK                            x       y       z     vdW  Elec       q    Type
REMARK                         _______ _______ _______ _____ _____    ______ ____
ROOT
ATOM      1  O   HOH     1      57.135   7.023  26.059  0.00  0.00    +0.000 OA
ENDROOT
TORSDOF 0
REMARK  Name = ../refined-set-2016/2pq9/2pq9_pocket.pdb
REMARK  259 active torsions:
REMARK  status: ('A' for Active; 'I' for Inactive)
REMARK    1  A    between atoms: _1  and  _3
REMARK    2  A    between atoms: _3  and  _4
REMARK    3  A    between atoms: _3  and  _6
REMARK    4  A    between atoms: _6  and  _7
REMARK    5  A    between atoms: _9  and  _11
REMARK    6  A    between atoms: _11  and  _12
REMARK    7  A    between atoms: _11  and  _14
REMARK    8  A    between atoms: _14  and  _15
REMARK    9  A    between atoms: _15  and  _16
REMARK   10  A    between atoms: _16  and  _17
REMARK   11  A    between atoms: _17  and  _18
REMARK   12  A    between atoms: _22  and  _24
REMARK   13  A    between atoms: _24  and  _25
REMARK   14  A    between atoms: _24  and  _27
REMARK   15  A    between atoms: _27  and  _28
REMARK   16  A    between atoms: _30  and  _32
REMARK   17  A    between atoms: _32  and  _33
REMARK   18  A    between atoms: _32  and  _35
REMARK   19  A    between atoms: _38  and  _40
REMARK   20  A    between atoms: _40  and  _41
REMARK   21  A    between atoms: _40  and  _43
REMARK   22  A    between atoms: _43  and  _44
REMARK   23  A    between atoms: _46  and  _48
REMARK   24  A    between atoms: _48  and  _49
REMARK   25  A    between atoms: _48  and  _51
REMARK   26  A    between atoms: _51  and  _52
REMARK   27  A    between atoms: _57  and  _59
REMARK   28  A    between atoms: _59  and  _60
REMARK   29  A    between atoms: _59  and  _62
REMARK   30  A    between atoms: _62  and  _63
REMARK   31  A    between atoms: _63  and  _64
REMARK   32  A    between atoms: _64  and  _65
REMARK   33  A    between atoms: _74  and  _76
REMARK   34  A    between atoms: _76  and  _77
REMARK   35  A    between atoms: _76  and  _79
REMARK   36  A    between atoms: _79  and  _80
REMARK   37  A    between atoms: _83  and  _85
REMARK   38  A    between atoms: _85  and  _86
REMARK   39  A    between atoms: _85  and  _88
REMARK   40  A    between atoms: _88  and  _89
REMARK   41  A    between atoms: _92  and  _94
REMARK   42  A    between atoms: _94  and  _95
REMARK   43  A    between atoms: _97  and  _99
REMARK   44  A    between atoms: _99  and  _100
REMARK   45  A    between atoms: _99  and  _102
REMARK   46  A    between atoms: _102  and  _103
REMARK   47  A    between atoms: _108  and  _110
REMARK   48  A    between atoms: _110  and  _111
REMARK   49  A    between atoms: _114  and  _116
REMARK   50  A    between atoms: _116  and  _117
REMARK   51  A    between atoms: _119  and  _121
REMARK   52  A    between atoms: _121  and  _122
REMARK   53  A    between atoms: _121  and  _124
REMARK   54  A    between atoms: _124  and  _125
REMARK   55  A    between atoms: _128  and  _130
REMARK   56  A    between atoms: _130  and  _131
REMARK   57  A    between atoms: _134  and  _136
REMARK   58  A    between atoms: _136  and  _137
REMARK   59  A    between atoms: _136  and  _139
REMARK   60  A    between atoms: _139  and  _140
REMARK   61  A    between atoms: _140  and  _141
REMARK   62  A    between atoms: _143  and  _145
REMARK   63  A    between atoms: _145  and  _146
REMARK   64  A    between atoms: _145  and  _148
REMARK   65  A    between atoms: _148  and  _149
REMARK   66  A    between atoms: _149  and  _150
REMARK   67  A    between atoms: _150  and  _151
REMARK   68  A    between atoms: _161  and  _162
REMARK   69  A    between atoms: _167  and  _169
REMARK   70  A    between atoms: _169  and  _170
REMARK   71  A    between atoms: _169  and  _172
REMARK   72  A    between atoms: _172  and  _173
REMARK   73  A    between atoms: _173  and  _174
REMARK   74  A    between atoms: _174  and  _175
REMARK   75  A    between atoms: _184  and  _186
REMARK   76  A    between atoms: _186  and  _187
REMARK   77  A    between atoms: _186  and  _189
REMARK   78  A    between atoms: _189  and  _190
REMARK   79  A    between atoms: _190  and  _191
REMARK   80  A    between atoms: _193  and  _195
REMARK   81  A    between atoms: _195  and  _196
REMARK   82  A    between atoms: _195  and  _198
REMARK   83  A    between atoms: _198  and  _199
REMARK   84  A    between atoms: _199  and  _200
REMARK   85  A    between atoms: _200  and  _201
REMARK   86  A    between atoms: _211  and  _212
REMARK   87  A    between atoms: _217  and  _219
REMARK   88  A    between atoms: _219  and  _220
REMARK   89  A    between atoms: _222  and  _224
REMARK   90  A    between atoms: _224  and  _225
REMARK   91  A    between atoms: _224  and  _227
REMARK   92  A    between atoms: _230  and  _232
REMARK   93  A    between atoms: _232  and  _233
REMARK   94  A    between atoms: _232  and  _235
REMARK   95  A    between atoms: _235  and  _236
REMARK   96  A    between atoms: _238  and  _240
REMARK   97  A    between atoms: _240  and  _241
REMARK   98  A    between atoms: _240  and  _243
REMARK   99  A    between atoms: _243  and  _244
REMARK  100  A    between atoms: _246  and  _248
REMARK  101  A    between atoms: _248  and  _249
REMARK  102  A    between atoms: _248  and  _251
REMARK  103  A    between atoms: _251  and  _252
REMARK  104  A    between atoms: _252  and  _253
REMARK  105  A    between atoms: _258  and  _260
REMARK  106  A    between atoms: _260  and  _261
REMARK  107  A    between atoms: _260  and  _263
REMARK  108  A    between atoms: _263  and  _264
REMARK  109  A    between atoms: _270  and  _272
REMARK  110  A    between atoms: _272  and  _273
REMARK  111  A    between atoms: _272  and  _275
REMARK  112  A    between atoms: _275  and  _276
REMARK  113  A    between atoms: _279  and  _281
REMARK  114  A    between atoms: _281  and  _282
REMARK  115  A    between atoms: _281  and  _284
REMARK  116  A    between atoms: _284  and  _285
REMARK  117  A    between atoms: _288  and  _290
REMARK  118  A    between atoms: _290  and  _291
REMARK  119  A    between atoms: _294  and  _296
REMARK  120  A    between atoms: _296  and  _297
REMARK  121  A    between atoms: _296  and  _299
REMARK  122  A    between atoms: _299  and  _300
REMARK  123  A    between atoms: _303  and  _305
REMARK  124  A    between atoms: _305  and  _306
REMARK  125  A    between atoms: _305  and  _308
REMARK  126  A    between atoms: _311  and  _313
REMARK  127  A    between atoms: _313  and  _314
REMARK  128  A    between atoms: _313  and  _316
REMARK  129  A    between atoms: _316  and  _317
REMARK  130  A    between atoms: _319  and  _321
REMARK  131  A    between atoms: _321  and  _322
REMARK  132  A    between atoms: _321  and  _324
REMARK  133  A    between atoms: _324  and  _325
REMARK  134  A    between atoms: _325  and  _326
REMARK  135  A    between atoms: _326  and  _327
REMARK  136  A    between atoms: _327  and  _328
REMARK  137  A    between atoms: _333  and  _334
REMARK  138  A    between atoms: _339  and  _341
REMARK  139  A    between atoms: _341  and  _342
REMARK  140  A    between atoms: _341  and  _344
REMARK  141  A    between atoms: _344  and  _345
REMARK  142  A    between atoms: _350  and  _351
REMARK  143  A    between atoms: _353  and  _355
REMARK  144  A    between atoms: _355  and  _356
REMARK  145  A    between atoms: _355  and  _358
REMARK  146  A    between atoms: _358  and  _359
REMARK  147  A    between atoms: _362  and  _364
REMARK  148  A    between atoms: _364  and  _365
REMARK  149  A    between atoms: _364  and  _367
REMARK  150  A    between atoms: _367  and  _368
REMARK  151  A    between atoms: _371  and  _373
REMARK  152  A    between atoms: _373  and  _374
REMARK  153  A    between atoms: _373  and  _376
REMARK  154  A    between atoms: _376  and  _377
REMARK  155  A    between atoms: _380  and  _382
REMARK  156  A    between atoms: _382  and  _383
REMARK  157  A    between atoms: _382  and  _385
REMARK  158  A    between atoms: _385  and  _386
REMARK  159  A    between atoms: _389  and  _391
REMARK  160  A    between atoms: _391  and  _392
REMARK  161  A    between atoms: _391  and  _394
REMARK  162  A    between atoms: _394  and  _395
REMARK  163  A    between atoms: _397  and  _399
REMARK  164  A    between atoms: _399  and  _400
REMARK  165  A    between atoms: _399  and  _402
REMARK  166  A    between atoms: _402  and  _403
REMARK  167  A    between atoms: _408  and  _409
REMARK  168  A    between atoms: _411  and  _413
REMARK  169  A    between atoms: _413  and  _414
REMARK  170  A    between atoms: _413  and  _416
REMARK  171  A    between atoms: _416  and  _417
REMARK  172  A    between atoms: _420  and  _422
REMARK  173  A    between atoms: _422  and  _423
REMARK  174  A    between atoms: _422  and  _425
REMARK  175  A    between atoms: _425  and  _426
REMARK  176  A    between atoms: _431  and  _433
REMARK  177  A    between atoms: _433  and  _434
REMARK  178  A    between atoms: _433  and  _436
REMARK  179  A    between atoms: _436  and  _437
REMARK  180  A    between atoms: _441  and  _442
REMARK  181  A    between atoms: _447  and  _449
REMARK  182  A    between atoms: _449  and  _450
REMARK  183  A    between atoms: _449  and  _452
REMARK  184  A    between atoms: _452  and  _453
REMARK  185  A    between atoms: _456  and  _458
REMARK  186  A    between atoms: _458  and  _459
REMARK  187  A    between atoms: _462  and  _464
REMARK  188  A    between atoms: _464  and  _465
REMARK  189  A    between atoms: _464  and  _467
REMARK  190  A    between atoms: _467  and  _468
REMARK  191  A    between atoms: _468  and  _469
REMARK  192  A    between atoms: _471  and  _473
REMARK  193  A    between atoms: _473  and  _474
REMARK  194  A    between atoms: _473  and  _476
REMARK  195  A    between atoms: _476  and  _477
REMARK  196  A    between atoms: _482  and  _484
REMARK  197  A    between atoms: _484  and  _485
REMARK  198  A    between atoms: _484  and  _487
REMARK  199  A    between atoms: _487  and  _488
REMARK  200  A    between atoms: _498  and  _500
REMARK  201  A    between atoms: _500  and  _501
REMARK  202  A    between atoms: _500  and  _503
REMARK  203  A    between atoms: _506  and  _508
REMARK  204  A    between atoms: _508  and  _509
REMARK  205  A    between atoms: _508  and  _511
REMARK  206  A    between atoms: _511  and  _512
REMARK  207  A    between atoms: _512  and  _513
REMARK  208  A    between atoms: _513  and  _514
REMARK  209  A    between atoms: _514  and  _515
REMARK  210  A    between atoms: _519  and  _521
REMARK  211  A    between atoms: _521  and  _522
REMARK  212  A    between atoms: _521  and  _524
REMARK  213  A    between atoms: _524  and  _525
REMARK  214  A    between atoms: _525  and  _526
REMARK  215  A    between atoms: _529  and  _531
REMARK  216  A    between atoms: _531  and  _532
REMARK  217  A    between atoms: _531  and  _534
REMARK  218  A    between atoms: _534  and  _535
REMARK  219  A    between atoms: _538  and  _540
REMARK  220  A    between atoms: _540  and  _541
REMARK  221  A    between atoms: _540  and  _543
REMARK  222  A    between atoms: _543  and  _544
REMARK  223  A    between atoms: _544  and  _545
REMARK  224  A    between atoms: _545  and  _546
REMARK  225  A    between atoms: _555  and  _557
REMARK  226  A    between atoms: _557  and  _558
REMARK  227  A    between atoms: _557  and  _560
REMARK  228  A    between atoms: _560  and  _561
REMARK  229  A    between atoms: _564  and  _566
REMARK  230  A    between atoms: _566  and  _567
REMARK  231  A    between atoms: _566  and  _569
REMARK  232  A    between atoms: _569  and  _570
REMARK  233  A    between atoms: _575  and  _577
REMARK  234  A    between atoms: _577  and  _578
REMARK  235  A    between atoms: _577  and  _580
REMARK  236  A    between atoms: _580  and  _581
REMARK  237  A    between atoms: _581  and  _582
REMARK  238  A    between atoms: _582  and  _583
REMARK  239  A    between atoms: _592  and  _594
REMARK  240  A    between atoms: _594  and  _595
REMARK  241  A    between atoms: _594  and  _597
REMARK  242  A    between atoms: _597  and  _598
REMARK  243  A    between atoms: _598  and  _599
REMARK  244  A    between atoms: _601  and  _603
REMARK  245  A    between atoms: _603  and  _604
REMARK  246  A    between atoms: _603  and  _606
REMARK  247  A    between atoms: _606  and  _607
REMARK  248  A    between atoms: _607  and  _608
REMARK  249  A    between atoms: _610  and  _612
REMARK  250  A    between atoms: _612  and  _613
REMARK  251  A    between atoms: _612  and  _615
REMARK  252  A    between atoms: _615  and  _616
REMARK  253  A    between atoms: _616  and  _617
REMARK  254  A    between atoms: _617  and  _618
REMARK  255  A    between atoms: _618  and  _619
REMARK  256  A    between atoms: _623  and  _625
REMARK  257  A    between atoms: _625  and  _626
REMARK  258  A    between atoms: _625  and  _628
REMARK  259  A    between atoms: _628  and  _629
REMARK                            x       y       z     vdW  Elec       q    Type
REMARK                         _______ _______ _______ _____ _____    ______ ____
ROOT
ATOM      1  O   HOH     1      65.421   4.630  24.625  0.00  0.00    +0.000 OA
ENDROOT
TORSDOF 0
REMARK  Name = ../refined-set-2016/2pq9/2pq9_pocket.pdb
REMARK  259 active torsions:
REMARK  status: ('A' for Active; 'I' for Inactive)
REMARK    1  A    between atoms: _1  and  _3
REMARK    2  A    between atoms: _3  and  _4
REMARK    3  A    between atoms: _3  and  _6
REMARK    4  A    between atoms: _6  and  _7
REMARK    5  A    between atoms: _9  and  _11
REMARK    6  A    between atoms: _11  and  _12
REMARK    7  A    between atoms: _11  and  _14
REMARK    8  A    between atoms: _14  and  _15
REMARK    9  A    between atoms: _15  and  _16
REMARK   10  A    between atoms: _16  and  _17
REMARK   11  A    between atoms: _17  and  _18
REMARK   12  A    between atoms: _22  and  _24
REMARK   13  A    between atoms: _24  and  _25
REMARK   14  A    between atoms: _24  and  _27
REMARK   15  A    between atoms: _27  and  _28
REMARK   16  A    between atoms: _30  and  _32
REMARK   17  A    between atoms: _32  and  _33
REMARK   18  A    between atoms: _32  and  _35
REMARK   19  A    between atoms: _38  and  _40
REMARK   20  A    between atoms: _40  and  _41
REMARK   21  A    between atoms: _40  and  _43
REMARK   22  A    between atoms: _43  and  _44
REMARK   23  A    between atoms: _46  and  _48
REMARK   24  A    between atoms: _48  and  _49
REMARK   25  A    between atoms: _48  and  _51
REMARK   26  A    between atoms: _51  and  _52
REMARK   27  A    between atoms: _57  and  _59
REMARK   28  A    between atoms: _59  and  _60
REMARK   29  A    between atoms: _59  and  _62
REMARK   30  A    between atoms: _62  and  _63
REMARK   31  A    between atoms: _63  and  _64
REMARK   32  A    between atoms: _64  and  _65
REMARK   33  A    between atoms: _74  and  _76
REMARK   34  A    between atoms: _76  and  _77
REMARK   35  A    between atoms: _76  and  _79
REMARK   36  A    between atoms: _79  and  _80
REMARK   37  A    between atoms: _83  and  _85
REMARK   38  A    between atoms: _85  and  _86
REMARK   39  A    between atoms: _85  and  _88
REMARK   40  A    between atoms: _88  and  _89
REMARK   41  A    between atoms: _92  and  _94
REMARK   42  A    between atoms: _94  and  _95
REMARK   43  A    between atoms: _97  and  _99
REMARK   44  A    between atoms: _99  and  _100
REMARK   45  A    between atoms: _99  and  _102
REMARK   46  A    between atoms: _102  and  _103
REMARK   47  A    between atoms: _108  and  _110
REMARK   48  A    between atoms: _110  and  _111
REMARK   49  A    between atoms: _114  and  _116
REMARK   50  A    between atoms: _116  and  _117
REMARK   51  A    between atoms: _119  and  _121
REMARK   52  A    between atoms: _121  and  _122
REMARK   53  A    between atoms: _121  and  _124
REMARK   54  A    between atoms: _124  and  _125
REMARK   55  A    between atoms: _128  and  _130
REMARK   56  A    between atoms: _130  and  _131
REMARK   57  A    between atoms: _134  and  _136
REMARK   58  A    between atoms: _136  and  _137
REMARK   59  A    between atoms: _136  and  _139
REMARK   60  A    between atoms: _139  and  _140
REMARK   61  A    between atoms: _140  and  _141
REMARK   62  A    between atoms: _143  and  _145
REMARK   63  A    between atoms: _145  and  _146
REMARK   64  A    between atoms: _145  and  _148
REMARK   65  A    between atoms: _148  and  _149
REMARK   66  A    between atoms: _149  and  _150
REMARK   67  A    between atoms: _150  and  _151
REMARK   68  A    between atoms: _161  and  _162
REMARK   69  A    between atoms: _167  and  _169
REMARK   70  A    between atoms: _169  and  _170
REMARK   71  A    between atoms: _169  and  _172
REMARK   72  A    between atoms: _172  and  _173
REMARK   73  A    between atoms: _173  and  _174
REMARK   74  A    between atoms: _174  and  _175
REMARK   75  A    between atoms: _184  and  _186
REMARK   76  A    between atoms: _186  and  _187
REMARK   77  A    between atoms: _186  and  _189
REMARK   78  A    between atoms: _189  and  _190
REMARK   79  A    between atoms: _190  and  _191
REMARK   80  A    between atoms: _193  and  _195
REMARK   81  A    between atoms: _195  and  _196
REMARK   82  A    between atoms: _195  and  _198
REMARK   83  A    between atoms: _198  and  _199
REMARK   84  A    between atoms: _199  and  _200
REMARK   85  A    between atoms: _200  and  _201
REMARK   86  A    between atoms: _211  and  _212
REMARK   87  A    between atoms: _217  and  _219
REMARK   88  A    between atoms: _219  and  _220
REMARK   89  A    between atoms: _222  and  _224
REMARK   90  A    between atoms: _224  and  _225
REMARK   91  A    between atoms: _224  and  _227
REMARK   92  A    between atoms: _230  and  _232
REMARK   93  A    between atoms: _232  and  _233
REMARK   94  A    between atoms: _232  and  _235
REMARK   95  A    between atoms: _235  and  _236
REMARK   96  A    between atoms: _238  and  _240
REMARK   97  A    between atoms: _240  and  _241
REMARK   98  A    between atoms: _240  and  _243
REMARK   99  A    between atoms: _243  and  _244
REMARK  100  A    between atoms: _246  and  _248
REMARK  101  A    between atoms: _248  and  _249
REMARK  102  A    between atoms: _248  and  _251
REMARK  103  A    between atoms: _251  and  _252
REMARK  104  A    between atoms: _252  and  _253
REMARK  105  A    between atoms: _258  and  _260
REMARK  106  A    between atoms: _260  and  _261
REMARK  107  A    between atoms: _260  and  _263
REMARK  108  A    between atoms: _263  and  _264
REMARK  109  A    between atoms: _270  and  _272
REMARK  110  A    between atoms: _272  and  _273
REMARK  111  A    between atoms: _272  and  _275
REMARK  112  A    between atoms: _275  and  _276
REMARK  113  A    between atoms: _279  and  _281
REMARK  114  A    between atoms: _281  and  _282
REMARK  115  A    between atoms: _281  and  _284
REMARK  116  A    between atoms: _284  and  _285
REMARK  117  A    between atoms: _288  and  _290
REMARK  118  A    between atoms: _290  and  _291
REMARK  119  A    between atoms: _294  and  _296
REMARK  120  A    between atoms: _296  and  _297
REMARK  121  A    between atoms: _296  and  _299
REMARK  122  A    between atoms: _299  and  _300
REMARK  123  A    between atoms: _303  and  _305
REMARK  124  A    between atoms: _305  and  _306
REMARK  125  A    between atoms: _305  and  _308
REMARK  126  A    between atoms: _311  and  _313
REMARK  127  A    between atoms: _313  and  _314
REMARK  128  A    between atoms: _313  and  _316
REMARK  129  A    between atoms: _316  and  _317
REMARK  130  A    between atoms: _319  and  _321
REMARK  131  A    between atoms: _321  and  _322
REMARK  132  A    between atoms: _321  and  _324
REMARK  133  A    between atoms: _324  and  _325
REMARK  134  A    between atoms: _325  and  _326
REMARK  135  A    between atoms: _326  and  _327
REMARK  136  A    between atoms: _327  and  _328
REMARK  137  A    between atoms: _333  and  _334
REMARK  138  A    between atoms: _339  and  _341
REMARK  139  A    between atoms: _341  and  _342
REMARK  140  A    between atoms: _341  and  _344
REMARK  141  A    between atoms: _344  and  _345
REMARK  142  A    between atoms: _350  and  _351
REMARK  143  A    between atoms: _353  and  _355
REMARK  144  A    between atoms: _355  and  _356
REMARK  145  A    between atoms: _355  and  _358
REMARK  146  A    between atoms: _358  and  _359
REMARK  147  A    between atoms: _362  and  _364
REMARK  148  A    between atoms: _364  and  _365
REMARK  149  A    between atoms: _364  and  _367
REMARK  150  A    between atoms: _367  and  _368
REMARK  151  A    between atoms: _371  and  _373
REMARK  152  A    between atoms: _373  and  _374
REMARK  153  A    between atoms: _373  and  _376
REMARK  154  A    between atoms: _376  and  _377
REMARK  155  A    between atoms: _380  and  _382
REMARK  156  A    between atoms: _382  and  _383
REMARK  157  A    between atoms: _382  and  _385
REMARK  158  A    between atoms: _385  and  _386
REMARK  159  A    between atoms: _389  and  _391
REMARK  160  A    between atoms: _391  and  _392
REMARK  161  A    between atoms: _391  and  _394
REMARK  162  A    between atoms: _394  and  _395
REMARK  163  A    between atoms: _397  and  _399
REMARK  164  A    between atoms: _399  and  _400
REMARK  165  A    between atoms: _399  and  _402
REMARK  166  A    between atoms: _402  and  _403
REMARK  167  A    between atoms: _408  and  _409
REMARK  168  A    between atoms: _411  and  _413
REMARK  169  A    between atoms: _413  and  _414
REMARK  170  A    between atoms: _413  and  _416
REMARK  171  A    between atoms: _416  and  _417
REMARK  172  A    between atoms: _420  and  _422
REMARK  173  A    between atoms: _422  and  _423
REMARK  174  A    between atoms: _422  and  _425
REMARK  175  A    between atoms: _425  and  _426
REMARK  176  A    between atoms: _431  and  _433
REMARK  177  A    between atoms: _433  and  _434
REMARK  178  A    between atoms: _433  and  _436
REMARK  179  A    between atoms: _436  and  _437
REMARK  180  A    between atoms: _441  and  _442
REMARK  181  A    between atoms: _447  and  _449
REMARK  182  A    between atoms: _449  and  _450
REMARK  183  A    between atoms: _449  and  _452
REMARK  184  A    between atoms: _452  and  _453
REMARK  185  A    between atoms: _456  and  _458
REMARK  186  A    between atoms: _458  and  _459
REMARK  187  A    between atoms: _462  and  _464
REMARK  188  A    between atoms: _464  and  _465
REMARK  189  A    between atoms: _464  and  _467
REMARK  190  A    between atoms: _467  and  _468
REMARK  191  A    between atoms: _468  and  _469
REMARK  192  A    between atoms: _471  and  _473
REMARK  193  A    between atoms: _473  and  _474
REMARK  194  A    between atoms: _473  and  _476
REMARK  195  A    between atoms: _476  and  _477
REMARK  196  A    between atoms: _482  and  _484
REMARK  197  A    between atoms: _484  and  _485
REMARK  198  A    between atoms: _484  and  _487
REMARK  199  A    between atoms: _487  and  _488
REMARK  200  A    between atoms: _498  and  _500
REMARK  201  A    between atoms: _500  and  _501
REMARK  202  A    between atoms: _500  and  _503
REMARK  203  A    between atoms: _506  and  _508
REMARK  204  A    between atoms: _508  and  _509
REMARK  205  A    between atoms: _508  and  _511
REMARK  206  A    between atoms: _511  and  _512
REMARK  207  A    between atoms: _512  and  _513
REMARK  208  A    between atoms: _513  and  _514
REMARK  209  A    between atoms: _514  and  _515
REMARK  210  A    between atoms: _519  and  _521
REMARK  211  A    between atoms: _521  and  _522
REMARK  212  A    between atoms: _521  and  _524
REMARK  213  A    between atoms: _524  and  _525
REMARK  214  A    between atoms: _525  and  _526
REMARK  215  A    between atoms: _529  and  _531
REMARK  216  A    between atoms: _531  and  _532
REMARK  217  A    between atoms: _531  and  _534
REMARK  218  A    between atoms: _534  and  _535
REMARK  219  A    between atoms: _538  and  _540
REMARK  220  A    between atoms: _540  and  _541
REMARK  221  A    between atoms: _540  and  _543
REMARK  222  A    between atoms: _543  and  _544
REMARK  223  A    between atoms: _544  and  _545
REMARK  224  A    between atoms: _545  and  _546
REMARK  225  A    between atoms: _555  and  _557
REMARK  226  A    between atoms: _557  and  _558
REMARK  227  A    between atoms: _557  and  _560
REMARK  228  A    between atoms: _560  and  _561
REMARK  229  A    between atoms: _564  and  _566
REMARK  230  A    between atoms: _566  and  _567
REMARK  231  A    between atoms: _566  and  _569
REMARK  232  A    between atoms: _569  and  _570
REMARK  233  A    between atoms: _575  and  _577
REMARK  234  A    between atoms: _577  and  _578
REMARK  235  A    between atoms: _577  and  _580
REMARK  236  A    between atoms: _580  and  _581
REMARK  237  A    between atoms: _581  and  _582
REMARK  238  A    between atoms: _582  and  _583
REMARK  239  A    between atoms: _592  and  _594
REMARK  240  A    between atoms: _594  and  _595
REMARK  241  A    between atoms: _594  and  _597
REMARK  242  A    between atoms: _597  and  _598
REMARK  243  A    between atoms: _598  and  _599
REMARK  244  A    between atoms: _601  and  _603
REMARK  245  A    between atoms: _603  and  _604
REMARK  246  A    between atoms: _603  and  _606
REMARK  247  A    between atoms: _606  and  _607
REMARK  248  A    between atoms: _607  and  _608
REMARK  249  A    between atoms: _610  and  _612
REMARK  250  A    between atoms: _612  and  _613
REMARK  251  A    between atoms: _612  and  _615
REMARK  252  A    between atoms: _615  and  _616
REMARK  253  A    between atoms: _616  and  _617
REMARK  254  A    between atoms: _617  and  _618
REMARK  255  A    between atoms: _618  and  _619
REMARK  256  A    between atoms: _623  and  _625
REMARK  257  A    between atoms: _625  and  _626
REMARK  258  A    between atoms: _625  and  _628
REMARK  259  A    between atoms: _628  and  _629
REMARK                            x       y       z     vdW  Elec       q    Type
REMARK                         _______ _______ _______ _____ _____    ______ ____
ROOT
ATOM      1  O   HOH     1      49.650   1.415  28.824  0.00  0.00    +0.000 OA
ENDROOT
TORSDOF 0
