REMARK  Name = ../refined-set-2016/2ayr/2ayr_pocket.pdb
REMARK  258 active torsions:
REMARK  status: ('A' for Active; 'I' for Inactive)
REMARK    1  A    between atoms: _1  and  _3
REMARK    2  A    between atoms: _3  and  _4
REMARK    3  A    between atoms: _3  and  _6
REMARK    4  A    between atoms: _6  and  _7
REMARK    5  A    between atoms: _10  and  _12
REMARK    6  A    between atoms: _12  and  _13
REMARK    7  A    between atoms: _12  and  _15
REMARK    8  A    between atoms: _15  and  _16
REMARK    9  A    between atoms: _16  and  _17
REMARK   10  A    between atoms: _19  and  _21
REMARK   11  A    between atoms: _21  and  _22
REMARK   12  A    between atoms: _21  and  _24
REMARK   13  A    between atoms: _24  and  _25
REMARK   14  A    between atoms: _25  and  _26
REMARK   15  A    between atoms: _28  and  _30
REMARK   16  A    between atoms: _30  and  _31
REMARK   17  A    between atoms: _33  and  _35
REMARK   18  A    between atoms: _35  and  _36
REMARK   19  A    between atoms: _35  and  _38
REMARK   20  A    between atoms: _38  and  _39
REMARK   21  A    between atoms: _42  and  _44
REMARK   22  A    between atoms: _44  and  _45
REMARK   23  A    between atoms: _44  and  _47
REMARK   24  A    between atoms: _47  and  _48
REMARK   25  A    between atoms: _51  and  _53
REMARK   26  A    between atoms: _53  and  _54
REMARK   27  A    between atoms: _53  and  _56
REMARK   28  A    between atoms: _56  and  _57
REMARK   29  A    between atoms: _60  and  _62
REMARK   30  A    between atoms: _62  and  _63
REMARK   31  A    between atoms: _62  and  _65
REMARK   32  A    between atoms: _65  and  _66
REMARK   33  A    between atoms: _71  and  _73
REMARK   34  A    between atoms: _73  and  _74
REMARK   35  A    between atoms: _73  and  _76
REMARK   36  A    between atoms: _76  and  _77
REMARK   37  A    between atoms: _80  and  _82
REMARK   38  A    between atoms: _82  and  _83
REMARK   39  A    between atoms: _86  and  _88
REMARK   40  A    between atoms: _88  and  _89
REMARK   41  A    between atoms: _88  and  _91
REMARK   42  A    between atoms: _91  and  _92
REMARK   43  A    between atoms: _95  and  _97
REMARK   44  A    between atoms: _97  and  _98
REMARK   45  A    between atoms: _97  and  _100
REMARK   46  A    between atoms: _100  and  _101
REMARK   47  A    between atoms: _101  and  _102
REMARK   48  A    between atoms: _102  and  _103
REMARK   49  A    between atoms: _112  and  _114
REMARK   50  A    between atoms: _114  and  _115
REMARK   51  A    between atoms: _114  and  _117
REMARK   52  A    between atoms: _117  and  _118
REMARK   53  A    between atoms: _118  and  _119
REMARK   54  A    between atoms: _122  and  _124
REMARK   55  A    between atoms: _124  and  _125
REMARK   56  A    between atoms: _124  and  _127
REMARK   57  A    between atoms: _127  and  _128
REMARK   58  A    between atoms: _131  and  _133
REMARK   59  A    between atoms: _133  and  _134
REMARK   60  A    between atoms: _133  and  _136
REMARK   61  A    between atoms: _139  and  _141
REMARK   62  A    between atoms: _141  and  _142
REMARK   63  A    between atoms: _141  and  _144
REMARK   64  A    between atoms: _144  and  _145
REMARK   65  A    between atoms: _145  and  _146
REMARK   66  A    between atoms: _148  and  _150
REMARK   67  A    between atoms: _150  and  _151
REMARK   68  A    between atoms: _150  and  _153
REMARK   69  A    between atoms: _153  and  _154
REMARK   70  A    between atoms: _164  and  _166
REMARK   71  A    between atoms: _166  and  _167
REMARK   72  A    between atoms: _166  and  _169
REMARK   73  A    between atoms: _169  and  _170
REMARK   74  A    between atoms: _173  and  _175
REMARK   75  A    between atoms: _175  and  _176
REMARK   76  A    between atoms: _175  and  _178
REMARK   77  A    between atoms: _178  and  _179
REMARK   78  A    between atoms: _179  and  _180
REMARK   79  A    between atoms: _183  and  _185
REMARK   80  A    between atoms: _185  and  _186
REMARK   81  A    between atoms: _185  and  _188
REMARK   82  A    between atoms: _188  and  _189
REMARK   83  A    between atoms: _192  and  _194
REMARK   84  A    between atoms: _194  and  _195
REMARK   85  A    between atoms: _194  and  _197
REMARK   86  A    between atoms: _197  and  _198
REMARK   87  A    between atoms: _201  and  _203
REMARK   88  A    between atoms: _203  and  _204
REMARK   89  A    between atoms: _203  and  _206
REMARK   90  A    between atoms: _206  and  _207
REMARK   91  A    between atoms: _207  and  _208
REMARK   92  A    between atoms: _210  and  _212
REMARK   93  A    between atoms: _212  and  _213
REMARK   94  A    between atoms: _212  and  _215
REMARK   95  A    between atoms: _215  and  _216
REMARK   96  A    between atoms: _219  and  _221
REMARK   97  A    between atoms: _221  and  _222
REMARK   98  A    between atoms: _224  and  _226
REMARK   99  A    between atoms: _226  and  _227
REMARK  100  A    between atoms: _226  and  _229
REMARK  101  A    between atoms: _229  and  _230
REMARK  102  A    between atoms: _233  and  _235
REMARK  103  A    between atoms: _235  and  _236
REMARK  104  A    between atoms: _235  and  _238
REMARK  105  A    between atoms: _241  and  _243
REMARK  106  A    between atoms: _243  and  _244
REMARK  107  A    between atoms: _243  and  _246
REMARK  108  A    between atoms: _246  and  _247
REMARK  109  A    between atoms: _247  and  _248
REMARK  110  A    between atoms: _248  and  _249
REMARK  111  A    between atoms: _258  and  _260
REMARK  112  A    between atoms: _260  and  _261
REMARK  113  A    between atoms: _260  and  _263
REMARK  114  A    between atoms: _263  and  _264
REMARK  115  A    between atoms: _266  and  _268
REMARK  116  A    between atoms: _268  and  _269
REMARK  117  A    between atoms: _268  and  _271
REMARK  118  A    between atoms: _271  and  _272
REMARK  119  A    between atoms: _275  and  _277
REMARK  120  A    between atoms: _277  and  _278
REMARK  121  A    between atoms: _277  and  _280
REMARK  122  A    between atoms: _280  and  _281
REMARK  123  A    between atoms: _284  and  _286
REMARK  124  A    between atoms: _286  and  _287
REMARK  125  A    between atoms: _286  and  _289
REMARK  126  A    between atoms: _289  and  _290
REMARK  127  A    between atoms: _296  and  _298
REMARK  128  A    between atoms: _298  and  _299
REMARK  129  A    between atoms: _302  and  _304
REMARK  130  A    between atoms: _304  and  _305
REMARK  131  A    between atoms: _304  and  _307
REMARK  132  A    between atoms: _307  and  _308
REMARK  133  A    between atoms: _311  and  _313
REMARK  134  A    between atoms: _313  and  _314
REMARK  135  A    between atoms: _316  and  _318
REMARK  136  A    between atoms: _318  and  _319
REMARK  137  A    between atoms: _318  and  _321
REMARK  138  A    between atoms: _324  and  _326
REMARK  139  A    between atoms: _326  and  _327
REMARK  140  A    between atoms: _326  and  _329
REMARK  141  A    between atoms: _329  and  _330
REMARK  142  A    between atoms: _330  and  _331
REMARK  143  A    between atoms: _334  and  _336
REMARK  144  A    between atoms: _336  and  _337
REMARK  145  A    between atoms: _339  and  _341
REMARK  146  A    between atoms: _341  and  _342
REMARK  147  A    between atoms: _341  and  _344
REMARK  148  A    between atoms: _344  and  _345
REMARK  149  A    between atoms: _345  and  _346
REMARK  150  A    between atoms: _348  and  _350
REMARK  151  A    between atoms: _350  and  _351
REMARK  152  A    between atoms: _350  and  _353
REMARK  153  A    between atoms: _356  and  _358
REMARK  154  A    between atoms: _358  and  _359
REMARK  155  A    between atoms: _358  and  _361
REMARK  156  A    between atoms: _361  and  _362
REMARK  157  A    between atoms: _362  and  _363
REMARK  158  A    between atoms: _366  and  _368
REMARK  159  A    between atoms: _368  and  _369
REMARK  160  A    between atoms: _368  and  _371
REMARK  161  A    between atoms: _371  and  _372
REMARK  162  A    between atoms: _375  and  _377
REMARK  163  A    between atoms: _377  and  _378
REMARK  164  A    between atoms: _377  and  _380
REMARK  165  A    between atoms: _380  and  _381
REMARK  166  A    between atoms: _387  and  _389
REMARK  167  A    between atoms: _389  and  _390
REMARK  168  A    between atoms: _389  and  _392
REMARK  169  A    between atoms: _392  and  _393
REMARK  170  A    between atoms: _396  and  _398
REMARK  171  A    between atoms: _398  and  _399
REMARK  172  A    between atoms: _398  and  _401
REMARK  173  A    between atoms: _401  and  _402
REMARK  174  A    between atoms: _402  and  _403
REMARK  175  A    between atoms: _405  and  _407
REMARK  176  A    between atoms: _407  and  _408
REMARK  177  A    between atoms: _407  and  _410
REMARK  178  A    between atoms: _410  and  _411
REMARK  179  A    between atoms: _413  and  _415
REMARK  180  A    between atoms: _415  and  _416
REMARK  181  A    between atoms: _415  and  _418
REMARK  182  A    between atoms: _418  and  _419
REMARK  183  A    between atoms: _424  and  _426
REMARK  184  A    between atoms: _426  and  _427
REMARK  185  A    between atoms: _426  and  _429
REMARK  186  A    between atoms: _429  and  _430
REMARK  187  A    between atoms: _430  and  _431
REMARK  188  A    between atoms: _431  and  _432
REMARK  189  A    between atoms: _432  and  _433
REMARK  190  A    between atoms: _437  and  _439
REMARK  191  A    between atoms: _439  and  _440
REMARK  192  A    between atoms: _442  and  _444
REMARK  193  A    between atoms: _444  and  _445
REMARK  194  A    between atoms: _444  and  _447
REMARK  195  A    between atoms: _447  and  _448
REMARK  196  A    between atoms: _448  and  _449
REMARK  197  A    between atoms: _451  and  _453
REMARK  198  A    between atoms: _453  and  _454
REMARK  199  A    between atoms: _453  and  _456
REMARK  200  A    between atoms: _456  and  _457
REMARK  201  A    between atoms: _457  and  _458
REMARK  202  A    between atoms: _461  and  _463
REMARK  203  A    between atoms: _463  and  _464
REMARK  204  A    between atoms: _463  and  _466
REMARK  205  A    between atoms: _466  and  _467
REMARK  206  A    between atoms: _472  and  _474
REMARK  207  A    between atoms: _474  and  _475
REMARK  208  A    between atoms: _474  and  _477
REMARK  209  A    between atoms: _477  and  _478
REMARK  210  A    between atoms: _481  and  _483
REMARK  211  A    between atoms: _483  and  _484
REMARK  212  A    between atoms: _483  and  _486
REMARK  213  A    between atoms: _486  and  _487
REMARK  214  A    between atoms: _492  and  _493
REMARK  215  A    between atoms: _495  and  _497
REMARK  216  A    between atoms: _497  and  _498
REMARK  217  A    between atoms: _497  and  _500
REMARK  218  A    between atoms: _500  and  _501
REMARK  219  A    between atoms: _503  and  _505
REMARK  220  A    between atoms: _505  and  _506
REMARK  221  A    between atoms: _505  and  _508
REMARK  222  A    between atoms: _508  and  _509
REMARK  223  A    between atoms: _509  and  _510
REMARK  224  A    between atoms: _512  and  _514
REMARK  225  A    between atoms: _514  and  _515
REMARK  226  A    between atoms: _514  and  _517
REMARK  227  A    between atoms: _517  and  _518
REMARK  228  A    between atoms: _518  and  _519
REMARK  229  A    between atoms: _519  and  _520
REMARK  230  A    between atoms: _520  and  _521
REMARK  231  A    between atoms: _525  and  _527
REMARK  232  A    between atoms: _527  and  _528
REMARK  233  A    between atoms: _527  and  _530
REMARK  234  A    between atoms: _530  and  _531
REMARK  235  A    between atoms: _531  and  _532
REMARK  236  A    between atoms: _532  and  _533
REMARK  237  A    between atoms: _533  and  _534
REMARK  238  A    between atoms: _538  and  _540
REMARK  239  A    between atoms: _540  and  _541
REMARK  240  A    between atoms: _540  and  _543
REMARK  241  A    between atoms: _547  and  _548
REMARK  242  A    between atoms: _553  and  _555
REMARK  243  A    between atoms: _555  and  _556
REMARK  244  A    between atoms: _555  and  _558
REMARK  245  A    between atoms: _558  and  _559
REMARK  246  A    between atoms: _562  and  _564
REMARK  247  A    between atoms: _564  and  _565
REMARK  248  A    between atoms: _564  and  _567
REMARK  249  A    between atoms: _567  and  _568
REMARK  250  A    between atoms: _571  and  _573
REMARK  251  A    between atoms: _573  and  _574
REMARK  252  A    between atoms: _573  and  _576
REMARK  253  A    between atoms: _576  and  _577
REMARK  254  A    between atoms: _580  and  _582
REMARK  255  A    between atoms: _582  and  _583
REMARK  256  A    between atoms: _582  and  _585
REMARK  257  A    between atoms: _585  and  _586
REMARK  258  A    between atoms: _586  and  _587
REMARK                            x       y       z     vdW  Elec       q    Type
REMARK                         _______ _______ _______ _____ _____    ______ ____
ROOT
ATOM      1  CA  LEU A   1      19.473  -8.112  26.662  0.00  0.00    +0.133 C 
ENDROOT
BRANCH   1   2
ATOM      2  N   LEU A   1      18.803  -6.820  26.742  0.00  0.00    -0.239 NA
ATOM      3  H   LEU A   1      19.345  -5.950  26.564  0.00  0.00    +0.142 HD
ENDBRANCH   1   2
BRANCH   1   4
ATOM      4  C   LEU A   1      20.124  -8.511  27.983  0.00  0.00    +0.224 C 
ATOM      5  O   LEU A   1      20.347  -7.681  28.865  0.00  0.00    -0.287 OA
ENDBRANCH   1   4
BRANCH   1   6
ATOM      6  CB  LEU A   1      20.521  -8.092  25.545  0.00  0.00    +0.025 C 
BRANCH   6   7
ATOM      7  CG  LEU A   1      19.984  -7.714  24.157  0.00  0.00    +0.002 C 
ATOM      8  CD2 LEU A   1      18.807  -8.617  23.791  0.00  0.00    +0.000 C 
ATOM      9  CD1 LEU A   1      21.091  -7.843  23.125  0.00  0.00    +0.000 C 
ENDBRANCH   6   7
ENDBRANCH   1   6
TORSDOF 4
REMARK  Name = ../refined-set-2016/2ayr/2ayr_pocket.pdb
REMARK  258 active torsions:
REMARK  status: ('A' for Active; 'I' for Inactive)
REMARK    1  A    between atoms: _1  and  _3
REMARK    2  A    between atoms: _3  and  _4
REMARK    3  A    between atoms: _3  and  _6
REMARK    4  A    between atoms: _6  and  _7
REMARK    5  A    between atoms: _10  and  _12
REMARK    6  A    between atoms: _12  and  _13
REMARK    7  A    between atoms: _12  and  _15
REMARK    8  A    between atoms: _15  and  _16
REMARK    9  A    between atoms: _16  and  _17
REMARK   10  A    between atoms: _19  and  _21
REMARK   11  A    between atoms: _21  and  _22
REMARK   12  A    between atoms: _21  and  _24
REMARK   13  A    between atoms: _24  and  _25
REMARK   14  A    between atoms: _25  and  _26
REMARK   15  A    between atoms: _28  and  _30
REMARK   16  A    between atoms: _30  and  _31
REMARK   17  A    between atoms: _33  and  _35
REMARK   18  A    between atoms: _35  and  _36
REMARK   19  A    between atoms: _35  and  _38
REMARK   20  A    between atoms: _38  and  _39
REMARK   21  A    between atoms: _42  and  _44
REMARK   22  A    between atoms: _44  and  _45
REMARK   23  A    between atoms: _44  and  _47
REMARK   24  A    between atoms: _47  and  _48
REMARK   25  A    between atoms: _51  and  _53
REMARK   26  A    between atoms: _53  and  _54
REMARK   27  A    between atoms: _53  and  _56
REMARK   28  A    between atoms: _56  and  _57
REMARK   29  A    between atoms: _60  and  _62
REMARK   30  A    between atoms: _62  and  _63
REMARK   31  A    between atoms: _62  and  _65
REMARK   32  A    between atoms: _65  and  _66
REMARK   33  A    between atoms: _71  and  _73
REMARK   34  A    between atoms: _73  and  _74
REMARK   35  A    between atoms: _73  and  _76
REMARK   36  A    between atoms: _76  and  _77
REMARK   37  A    between atoms: _80  and  _82
REMARK   38  A    between atoms: _82  and  _83
REMARK   39  A    between atoms: _86  and  _88
REMARK   40  A    between atoms: _88  and  _89
REMARK   41  A    between atoms: _88  and  _91
REMARK   42  A    between atoms: _91  and  _92
REMARK   43  A    between atoms: _95  and  _97
REMARK   44  A    between atoms: _97  and  _98
REMARK   45  A    between atoms: _97  and  _100
REMARK   46  A    between atoms: _100  and  _101
REMARK   47  A    between atoms: _101  and  _102
REMARK   48  A    between atoms: _102  and  _103
REMARK   49  A    between atoms: _112  and  _114
REMARK   50  A    between atoms: _114  and  _115
REMARK   51  A    between atoms: _114  and  _117
REMARK   52  A    between atoms: _117  and  _118
REMARK   53  A    between atoms: _118  and  _119
REMARK   54  A    between atoms: _122  and  _124
REMARK   55  A    between atoms: _124  and  _125
REMARK   56  A    between atoms: _124  and  _127
REMARK   57  A    between atoms: _127  and  _128
REMARK   58  A    between atoms: _131  and  _133
REMARK   59  A    between atoms: _133  and  _134
REMARK   60  A    between atoms: _133  and  _136
REMARK   61  A    between atoms: _139  and  _141
REMARK   62  A    between atoms: _141  and  _142
REMARK   63  A    between atoms: _141  and  _144
REMARK   64  A    between atoms: _144  and  _145
REMARK   65  A    between atoms: _145  and  _146
REMARK   66  A    between atoms: _148  and  _150
REMARK   67  A    between atoms: _150  and  _151
REMARK   68  A    between atoms: _150  and  _153
REMARK   69  A    between atoms: _153  and  _154
REMARK   70  A    between atoms: _164  and  _166
REMARK   71  A    between atoms: _166  and  _167
REMARK   72  A    between atoms: _166  and  _169
REMARK   73  A    between atoms: _169  and  _170
REMARK   74  A    between atoms: _173  and  _175
REMARK   75  A    between atoms: _175  and  _176
REMARK   76  A    between atoms: _175  and  _178
REMARK   77  A    between atoms: _178  and  _179
REMARK   78  A    between atoms: _179  and  _180
REMARK   79  A    between atoms: _183  and  _185
REMARK   80  A    between atoms: _185  and  _186
REMARK   81  A    between atoms: _185  and  _188
REMARK   82  A    between atoms: _188  and  _189
REMARK   83  A    between atoms: _192  and  _194
REMARK   84  A    between atoms: _194  and  _195
REMARK   85  A    between atoms: _194  and  _197
REMARK   86  A    between atoms: _197  and  _198
REMARK   87  A    between atoms: _201  and  _203
REMARK   88  A    between atoms: _203  and  _204
REMARK   89  A    between atoms: _203  and  _206
REMARK   90  A    between atoms: _206  and  _207
REMARK   91  A    between atoms: _207  and  _208
REMARK   92  A    between atoms: _210  and  _212
REMARK   93  A    between atoms: _212  and  _213
REMARK   94  A    between atoms: _212  and  _215
REMARK   95  A    between atoms: _215  and  _216
REMARK   96  A    between atoms: _219  and  _221
REMARK   97  A    between atoms: _221  and  _222
REMARK   98  A    between atoms: _224  and  _226
REMARK   99  A    between atoms: _226  and  _227
REMARK  100  A    between atoms: _226  and  _229
REMARK  101  A    between atoms: _229  and  _230
REMARK  102  A    between atoms: _233  and  _235
REMARK  103  A    between atoms: _235  and  _236
REMARK  104  A    between atoms: _235  and  _238
REMARK  105  A    between atoms: _241  and  _243
REMARK  106  A    between atoms: _243  and  _244
REMARK  107  A    between atoms: _243  and  _246
REMARK  108  A    between atoms: _246  and  _247
REMARK  109  A    between atoms: _247  and  _248
REMARK  110  A    between atoms: _248  and  _249
REMARK  111  A    between atoms: _258  and  _260
REMARK  112  A    between atoms: _260  and  _261
REMARK  113  A    between atoms: _260  and  _263
REMARK  114  A    between atoms: _263  and  _264
REMARK  115  A    between atoms: _266  and  _268
REMARK  116  A    between atoms: _268  and  _269
REMARK  117  A    between atoms: _268  and  _271
REMARK  118  A    between atoms: _271  and  _272
REMARK  119  A    between atoms: _275  and  _277
REMARK  120  A    between atoms: _277  and  _278
REMARK  121  A    between atoms: _277  and  _280
REMARK  122  A    between atoms: _280  and  _281
REMARK  123  A    between atoms: _284  and  _286
REMARK  124  A    between atoms: _286  and  _287
REMARK  125  A    between atoms: _286  and  _289
REMARK  126  A    between atoms: _289  and  _290
REMARK  127  A    between atoms: _296  and  _298
REMARK  128  A    between atoms: _298  and  _299
REMARK  129  A    between atoms: _302  and  _304
REMARK  130  A    between atoms: _304  and  _305
REMARK  131  A    between atoms: _304  and  _307
REMARK  132  A    between atoms: _307  and  _308
REMARK  133  A    between atoms: _311  and  _313
REMARK  134  A    between atoms: _313  and  _314
REMARK  135  A    between atoms: _316  and  _318
REMARK  136  A    between atoms: _318  and  _319
REMARK  137  A    between atoms: _318  and  _321
REMARK  138  A    between atoms: _324  and  _326
REMARK  139  A    between atoms: _326  and  _327
REMARK  140  A    between atoms: _326  and  _329
REMARK  141  A    between atoms: _329  and  _330
REMARK  142  A    between atoms: _330  and  _331
REMARK  143  A    between atoms: _334  and  _336
REMARK  144  A    between atoms: _336  and  _337
REMARK  145  A    between atoms: _339  and  _341
REMARK  146  A    between atoms: _341  and  _342
REMARK  147  A    between atoms: _341  and  _344
REMARK  148  A    between atoms: _344  and  _345
REMARK  149  A    between atoms: _345  and  _346
REMARK  150  A    between atoms: _348  and  _350
REMARK  151  A    between atoms: _350  and  _351
REMARK  152  A    between atoms: _350  and  _353
REMARK  153  A    between atoms: _356  and  _358
REMARK  154  A    between atoms: _358  and  _359
REMARK  155  A    between atoms: _358  and  _361
REMARK  156  A    between atoms: _361  and  _362
REMARK  157  A    between atoms: _362  and  _363
REMARK  158  A    between atoms: _366  and  _368
REMARK  159  A    between atoms: _368  and  _369
REMARK  160  A    between atoms: _368  and  _371
REMARK  161  A    between atoms: _371  and  _372
REMARK  162  A    between atoms: _375  and  _377
REMARK  163  A    between atoms: _377  and  _378
REMARK  164  A    between atoms: _377  and  _380
REMARK  165  A    between atoms: _380  and  _381
REMARK  166  A    between atoms: _387  and  _389
REMARK  167  A    between atoms: _389  and  _390
REMARK  168  A    between atoms: _389  and  _392
REMARK  169  A    between atoms: _392  and  _393
REMARK  170  A    between atoms: _396  and  _398
REMARK  171  A    between atoms: _398  and  _399
REMARK  172  A    between atoms: _398  and  _401
REMARK  173  A    between atoms: _401  and  _402
REMARK  174  A    between atoms: _402  and  _403
REMARK  175  A    between atoms: _405  and  _407
REMARK  176  A    between atoms: _407  and  _408
REMARK  177  A    between atoms: _407  and  _410
REMARK  178  A    between atoms: _410  and  _411
REMARK  179  A    between atoms: _413  and  _415
REMARK  180  A    between atoms: _415  and  _416
REMARK  181  A    between atoms: _415  and  _418
REMARK  182  A    between atoms: _418  and  _419
REMARK  183  A    between atoms: _424  and  _426
REMARK  184  A    between atoms: _426  and  _427
REMARK  185  A    between atoms: _426  and  _429
REMARK  186  A    between atoms: _429  and  _430
REMARK  187  A    between atoms: _430  and  _431
REMARK  188  A    between atoms: _431  and  _432
REMARK  189  A    between atoms: _432  and  _433
REMARK  190  A    between atoms: _437  and  _439
REMARK  191  A    between atoms: _439  and  _440
REMARK  192  A    between atoms: _442  and  _444
REMARK  193  A    between atoms: _444  and  _445
REMARK  194  A    between atoms: _444  and  _447
REMARK  195  A    between atoms: _447  and  _448
REMARK  196  A    between atoms: _448  and  _449
REMARK  197  A    between atoms: _451  and  _453
REMARK  198  A    between atoms: _453  and  _454
REMARK  199  A    between atoms: _453  and  _456
REMARK  200  A    between atoms: _456  and  _457
REMARK  201  A    between atoms: _457  and  _458
REMARK  202  A    between atoms: _461  and  _463
REMARK  203  A    between atoms: _463  and  _464
REMARK  204  A    between atoms: _463  and  _466
REMARK  205  A    between atoms: _466  and  _467
REMARK  206  A    between atoms: _472  and  _474
REMARK  207  A    between atoms: _474  and  _475
REMARK  208  A    between atoms: _474  and  _477
REMARK  209  A    between atoms: _477  and  _478
REMARK  210  A    between atoms: _481  and  _483
REMARK  211  A    between atoms: _483  and  _484
REMARK  212  A    between atoms: _483  and  _486
REMARK  213  A    between atoms: _486  and  _487
REMARK  214  A    between atoms: _492  and  _493
REMARK  215  A    between atoms: _495  and  _497
REMARK  216  A    between atoms: _497  and  _498
REMARK  217  A    between atoms: _497  and  _500
REMARK  218  A    between atoms: _500  and  _501
REMARK  219  A    between atoms: _503  and  _505
REMARK  220  A    between atoms: _505  and  _506
REMARK  221  A    between atoms: _505  and  _508
REMARK  222  A    between atoms: _508  and  _509
REMARK  223  A    between atoms: _509  and  _510
REMARK  224  A    between atoms: _512  and  _514
REMARK  225  A    between atoms: _514  and  _515
REMARK  226  A    between atoms: _514  and  _517
REMARK  227  A    between atoms: _517  and  _518
REMARK  228  A    between atoms: _518  and  _519
REMARK  229  A    between atoms: _519  and  _520
REMARK  230  A    between atoms: _520  and  _521
REMARK  231  A    between atoms: _525  and  _527
REMARK  232  A    between atoms: _527  and  _528
REMARK  233  A    between atoms: _527  and  _530
REMARK  234  A    between atoms: _530  and  _531
REMARK  235  A    between atoms: _531  and  _532
REMARK  236  A    between atoms: _532  and  _533
REMARK  237  A    between atoms: _533  and  _534
REMARK  238  A    between atoms: _538  and  _540
REMARK  239  A    between atoms: _540  and  _541
REMARK  240  A    between atoms: _540  and  _543
REMARK  241  A    between atoms: _547  and  _548
REMARK  242  A    between atoms: _553  and  _555
REMARK  243  A    between atoms: _555  and  _556
REMARK  244  A    between atoms: _555  and  _558
REMARK  245  A    between atoms: _558  and  _559
REMARK  246  A    between atoms: _562  and  _564
REMARK  247  A    between atoms: _564  and  _565
REMARK  248  A    between atoms: _564  and  _567
REMARK  249  A    between atoms: _567  and  _568
REMARK  250  A    between atoms: _571  and  _573
REMARK  251  A    between atoms: _573  and  _574
REMARK  252  A    between atoms: _573  and  _576
REMARK  253  A    between atoms: _576  and  _577
REMARK  254  A    between atoms: _580  and  _582
REMARK  255  A    between atoms: _582  and  _583
REMARK  256  A    between atoms: _582  and  _585
REMARK  257  A    between atoms: _585  and  _586
REMARK  258  A    between atoms: _586  and  _587
REMARK                            x       y       z     vdW  Elec       q    Type
REMARK                         _______ _______ _______ _____ _____    ______ ____
ROOT
ATOM      1  CA  LEU A   8      26.833  -7.769  25.541  0.00  0.00    +0.149 C 
ENDROOT
BRANCH   1   3
ATOM      2  C   ASN A   7      28.451  -9.138  24.376  0.00  0.00    +0.241 C 
ATOM      3  N   LEU A   8      28.118  -8.437  25.456  0.00  0.00    -0.297 N 
ATOM      4  H   LEU A   8      28.787  -8.367  26.249  0.00  0.00    +0.150 HD
ATOM      5  O   ASN A   7      27.705  -9.281  23.410  0.00  0.00    -0.273 OA
BRANCH   2   6
ATOM      6  CA  ASN A   7      29.829  -9.773  24.391  0.00  0.00    +0.158 C 
BRANCH   6   8
ATOM      7  C   THR A   6      31.095  -7.689  24.386  0.00  0.00    +0.243 C 
ATOM      8  N   ASN A   7      30.805  -8.851  24.969  0.00  0.00    -0.297 N 
ATOM      9  H   ASN A   7      31.284  -9.108  25.856  0.00  0.00    +0.150 HD
ATOM     10  O   THR A   6      30.551  -7.304  23.349  0.00  0.00    -0.273 OA
BRANCH   7  11
ATOM     11  CA  THR A   6      32.143  -6.822  25.073  0.00  0.00    +0.176 C 
BRANCH  11  13
ATOM     12  C   LEU A   5      30.791  -6.248  26.999  0.00  0.00    +0.241 C 
ATOM     13  N   THR A   6      31.914  -6.758  26.509  0.00  0.00    -0.295 N 
ATOM     14  H   THR A   6      32.641  -7.117  27.160  0.00  0.00    +0.150 HD
ATOM     15  O   LEU A   5      29.913  -5.759  26.288  0.00  0.00    -0.273 OA
BRANCH  12  16
ATOM     16  CA  LEU A   5      30.631  -6.285  28.513  0.00  0.00    +0.149 C 
BRANCH  16  18
ATOM     17  C   LEU A   4      30.508  -8.678  28.882  0.00  0.00    +0.241 C 
ATOM     18  N   LEU A   5      31.135  -7.527  29.088  0.00  0.00    -0.297 N 
ATOM     19  H   LEU A   5      31.998  -7.510  29.668  0.00  0.00    +0.150 HD
ATOM     20  O   LEU A   4      29.493  -8.766  28.191  0.00  0.00    -0.273 OA
BRANCH  17  21
ATOM     21  CA  LEU A   4      31.112  -9.915  29.554  0.00  0.00    +0.149 C 
BRANCH  21  23
ATOM     22  C   GLY A   3      33.153 -10.084  28.246  0.00  0.00    +0.243 C 
ATOM     23  N   LEU A   4      32.565  -9.941  29.432  0.00  0.00    -0.297 N 
ATOM     24  H   LEU A   4      33.152  -9.846  30.286  0.00  0.00    +0.150 HD
ATOM     25  O   GLY A   3      32.521 -10.185  27.195  0.00  0.00    -0.273 OA
BRANCH  22  26
ATOM     26  CA  GLY A   3      34.668 -10.107  28.236  0.00  0.00    +0.176 C 
BRANCH  26  28
ATOM     27  C   MET A   2      35.015  -7.801  28.853  0.00  0.00    +0.241 C 
ATOM     28  N   GLY A   3      35.226  -9.090  29.104  0.00  0.00    -0.295 N 
ATOM     29  H   GLY A   3      35.795  -9.370  29.928  0.00  0.00    +0.150 HD
ATOM     30  O   MET A   2      34.422  -7.404  27.845  0.00  0.00    -0.273 OA
BRANCH  27  31
ATOM     31  CA  MET A   2      35.541  -6.818  29.901  0.00  0.00    +0.149 C 
BRANCH  31  34
ATOM     32  C   MET A   1      34.336  -7.671  31.830  0.00  0.00    +0.238 C 
ATOM     33  O   MET A   1      33.249  -7.425  31.315  0.00  0.00    -0.274 OA
ATOM     34  N   MET A   2      35.492  -7.428  31.223  0.00  0.00    -0.297 N 
ATOM     35  H   MET A   2      36.381  -7.678  31.701  0.00  0.00    +0.150 HD
BRANCH  32  36
ATOM     36  CA  MET A   1      34.416  -8.280  33.227  0.00  0.00    +0.146 C 
BRANCH  36  37
ATOM     37  N   MET A   1      35.326  -9.416  33.244  0.00  0.00    -0.238 NA
ATOM     38  H   MET A   1      36.134  -9.416  33.899  0.00  0.00    +0.142 HD
ENDBRANCH  36  37
BRANCH  36  39
ATOM     39  CB  MET A   1      34.874  -7.210  34.217  0.00  0.00    +0.038 C 
BRANCH  39  40
ATOM     40  CG  MET A   1      33.881  -6.074  34.375  0.00  0.00    +0.060 C 
BRANCH  40  41
ATOM     41  SD  MET A   1      32.306  -6.648  35.041  0.00  0.00    -0.139 S 
ATOM     42  CE  MET A   1      32.726  -6.786  36.799  0.00  0.00    +0.069 C 
ENDBRANCH  40  41
ENDBRANCH  39  40
ENDBRANCH  36  39
ENDBRANCH  32  36
ENDBRANCH  31  34
BRANCH  31  43
ATOM     43  CB  MET A   2      36.978  -6.406  29.570  0.00  0.00    +0.041 C 
BRANCH  43  44
ATOM     44  CG  MET A   2      37.081  -5.292  28.545  0.00  0.00    +0.060 C 
BRANCH  44  45
ATOM     45  SD  MET A   2      36.190  -3.796  29.054  0.00  0.00    -0.139 S 
ATOM     46  CE  MET A   2      35.590  -3.279  27.500  0.00  0.00    +0.069 C 
ENDBRANCH  44  45
ENDBRANCH  43  44
ENDBRANCH  31  43
ENDBRANCH  27  31
ENDBRANCH  26  28
ENDBRANCH  22  26
ENDBRANCH  21  23
BRANCH  21  47
ATOM     47  CB  LEU A   4      30.709  -9.945  31.030  0.00  0.00    +0.029 C 
BRANCH  47  48
ATOM     48  CG  LEU A   4      30.990 -11.265  31.759  0.00  0.00    +0.002 C 
ATOM     49  CD2 LEU A   4      30.602 -11.145  33.221  0.00  0.00    +0.000 C 
ATOM     50  CD1 LEU A   4      30.220 -12.386  31.082  0.00  0.00    +0.000 C 
ENDBRANCH  47  48
ENDBRANCH  21  47
ENDBRANCH  17  21
ENDBRANCH  16  18
BRANCH  16  51
ATOM     51  CB  LEU A   5      31.354  -5.087  29.130  0.00  0.00    +0.029 C 
BRANCH  51  52
ATOM     52  CG  LEU A   5      31.166  -4.955  30.642  0.00  0.00    +0.002 C 
ATOM     53  CD2 LEU A   5      31.945  -3.751  31.140  0.00  0.00    +0.000 C 
ATOM     54  CD1 LEU A   5      29.686  -4.820  30.972  0.00  0.00    +0.000 C 
ENDBRANCH  51  52
ENDBRANCH  16  51
ENDBRANCH  12  16
ENDBRANCH  11  13
BRANCH  11  55
ATOM     55  CB  THR A   6      33.539  -7.383  24.758  0.00  0.00    +0.137 C 
ATOM     56  CG2 THR A   6      33.723  -7.538  23.259  0.00  0.00    +0.034 C 
BRANCH  55  57
ATOM     57  OG1 THR A   6      34.537  -6.492  25.272  0.00  0.00    -0.382 OA
ATOM     58  HG1 THR A   6      34.428  -6.406  26.252  0.00  0.00    +0.210 HD
ENDBRANCH  55  57
ENDBRANCH  11  55
ENDBRANCH   7  11
ENDBRANCH   6   8
BRANCH   6  59
ATOM     59  CB  ASN A   7      29.763 -11.083  25.191  0.00  0.00    +0.114 C 
BRANCH  59  60
ATOM     60  CG  ASN A   7      28.696 -12.036  24.659  0.00  0.00    +0.222 C 
ATOM     61  OD1 ASN A   7      27.537 -11.991  25.079  0.00  0.00    -0.275 OA
ATOM     62  ND2 ASN A   7      29.084 -12.899  23.726  0.00  0.00    -0.329 N 
ATOM     63 HD21 ASN A   7      30.072 -12.903  23.400  0.00  0.00    +0.145 HD
ATOM     64 HD22 ASN A   7      28.400 -13.570  23.322  0.00  0.00    +0.145 HD
ENDBRANCH  59  60
ENDBRANCH   6  59
ENDBRANCH   2   6
ENDBRANCH   1   3
BRANCH   1  65
ATOM     65  C   LEU A   8      26.747  -6.707  24.447  0.00  0.00    +0.241 C 
ATOM     66  N   ALA A   9      27.773  -5.862  24.365  0.00  0.00    -0.297 N 
ATOM     67  H   ALA A   9      28.577  -5.983  25.013  0.00  0.00    +0.150 HD
ATOM     68  O   LEU A   8      25.776  -6.664  23.689  0.00  0.00    -0.273 OA
BRANCH  66  69
ATOM     69  CA  ALA A   9      27.806  -4.769  23.392  0.00  0.00    +0.149 C 
ATOM     70  CB  ALA A   9      29.116  -3.992  23.531  0.00  0.00    +0.031 C 
BRANCH  69  71
ATOM     71  C   ALA A   9      27.657  -5.286  21.959  0.00  0.00    +0.241 C 
ATOM     72  N   ASP A  10      28.375  -6.356  21.632  0.00  0.00    -0.297 N 
ATOM     73  H   ASP A  10      29.002  -6.788  22.340  0.00  0.00    +0.150 HD
ATOM     74  O   ALA A   9      26.898  -4.727  21.164  0.00  0.00    -0.273 OA
BRANCH  72  75
ATOM     75  CA  ASP A  10      28.296  -6.934  20.294  0.00  0.00    +0.160 C 
BRANCH  75  76
ATOM     76  C   ASP A  10      26.903  -7.446  19.945  0.00  0.00    +0.241 C 
ATOM     77  N   ARG A  11      26.207  -8.041  20.913  0.00  0.00    -0.297 N 
ATOM     78  H   ARG A  11      26.633  -8.169  21.853  0.00  0.00    +0.150 HD
ATOM     79  O   ASP A  10      26.460  -7.303  18.810  0.00  0.00    -0.273 OA
BRANCH  77  80
ATOM     80  CA  ARG A  11      24.851  -8.513  20.660  0.00  0.00    +0.149 C 
BRANCH  80  81
ATOM     81  C   ARG A  11      23.858  -7.363  20.555  0.00  0.00    +0.241 C 
ATOM     82  N   GLU A  12      24.061  -6.324  21.359  0.00  0.00    -0.297 N 
ATOM     83  H   GLU A  12      24.851  -6.346  22.035  0.00  0.00    +0.150 HD
ATOM     84  O   ARG A  11      22.924  -7.411  19.756  0.00  0.00    -0.273 OA
BRANCH  82  85
ATOM     85  CA  GLU A  12      23.194  -5.155  21.307  0.00  0.00    +0.149 C 
BRANCH  85  86
ATOM     86  C   GLU A  12      23.297  -4.435  19.972  0.00  0.00    +0.241 C 
ATOM     87  O   GLU A  12      22.327  -3.856  19.488  0.00  0.00    -0.273 OA
ATOM     88  N   LEU A  13      24.479  -4.466  19.378  0.00  0.00    -0.297 N 
ATOM     89  H   LEU A  13      25.253  -5.018  19.799  0.00  0.00    +0.150 HD
BRANCH  88  90
ATOM     90  CA  LEU A  13      24.705  -3.731  18.137  0.00  0.00    +0.149 C 
BRANCH  90  91
ATOM     91  C   LEU A  13      23.743  -4.219  17.065  0.00  0.00    +0.241 C 
ATOM     92  N   VAL A  14      23.481  -5.522  17.052  0.00  0.00    -0.298 N 
ATOM     93  H   VAL A  14      23.897  -6.143  17.775  0.00  0.00    +0.150 HD
ATOM     94  O   LEU A  13      23.238  -3.438  16.263  0.00  0.00    -0.273 OA
BRANCH  92  95
ATOM     95  CA  VAL A  14      22.614  -6.078  16.029  0.00  0.00    +0.137 C 
BRANCH  95  96
ATOM     96  CB  VAL A  14      22.481  -7.614  16.165  0.00  0.00    +0.026 C 
ATOM     97  CG2 VAL A  14      23.857  -8.268  16.068  0.00  0.00    +0.002 C 
ATOM     98  CG1 VAL A  14      21.546  -8.138  15.088  0.00  0.00    +0.002 C 
ENDBRANCH  95  96
BRANCH  95  99
ATOM     99  C   VAL A  14      21.233  -5.464  16.158  0.00  0.00    +0.227 C 
ATOM    100  O   VAL A  14      20.605  -5.105  15.166  0.00  0.00    -0.286 OA
ENDBRANCH  95  99
ENDBRANCH  92  95
ENDBRANCH  90  91
BRANCH  90 101
ATOM    101  CB  LEU A  13      26.143  -3.927  17.669  0.00  0.00    +0.029 C 
BRANCH 101 102
ATOM    102  CG  LEU A  13      26.552  -3.151  16.415  0.00  0.00    +0.002 C 
ATOM    103  CD2 LEU A  13      26.363  -1.660  16.652  0.00  0.00    +0.000 C 
ATOM    104  CD1 LEU A  13      28.000  -3.466  16.078  0.00  0.00    +0.000 C 
ENDBRANCH 101 102
ENDBRANCH  90 101
ENDBRANCH  88  90
ENDBRANCH  85  86
BRANCH  85 105
ATOM    105  CB  GLU A  12      23.546  -4.173  22.424  0.00  0.00    +0.041 C 
BRANCH 105 106
ATOM    106  CG  GLU A  12      23.000  -4.568  23.783  0.00  0.00    +0.116 C 
BRANCH 106 107
ATOM    107  CD  GLU A  12      23.293  -3.534  24.836  0.00  0.00    +0.365 C 
ATOM    108  OE2 GLU A  12      24.423  -3.545  25.355  0.00  0.00    -0.246 OA
ATOM    109  OE1 GLU A  12      22.399  -2.712  25.139  0.00  0.00    -0.246 OA
ENDBRANCH 106 107
ENDBRANCH 105 106
ENDBRANCH  85 105
ENDBRANCH  82  85
ENDBRANCH  80  81
BRANCH  80 110
ATOM    110  CB  ARG A  11      24.408  -9.491  21.761  0.00  0.00    +0.033 C 
BRANCH 110 111
ATOM    111  CG  ARG A  11      24.944 -10.910  21.563  0.00  0.00    +0.045 C 
BRANCH 111 112
ATOM    112  CD  ARG A  11      24.429 -11.865  22.642  0.00  0.00    +0.174 C 
BRANCH 112 113
ATOM    113  NE  ARG A  11      25.069 -11.626  23.928  0.00  0.00    -0.265 N 
ATOM    114  CZ  ARG A  11      24.414 -11.338  25.048  0.00  0.00    +0.342 C 
ATOM    115  NH2 ARG A  11      25.087 -11.118  26.171  0.00  0.00    -0.292 N 
ATOM    116 HH21 ARG A  11      24.576 -10.893  27.048  0.00  0.00    +0.255 HD
ATOM    117 HH22 ARG A  11      26.126 -11.171  26.174  0.00  0.00    +0.255 HD
ATOM    118  NH1 ARG A  11      23.089 -11.257  25.044  0.00  0.00    -0.292 N 
ATOM    119 HH11 ARG A  11      22.579 -11.031  25.922  0.00  0.00    +0.255 HD
ATOM    120 HH12 ARG A  11      22.561 -11.419  24.163  0.00  0.00    +0.255 HD
ATOM    121  HE  ARG A  11      26.106 -11.684  23.973  0.00  0.00    +0.259 HD
ENDBRANCH 112 113
ENDBRANCH 111 112
ENDBRANCH 110 111
ENDBRANCH  80 110
ENDBRANCH  77  80
ENDBRANCH  75  76
BRANCH  75 122
ATOM    122  CB  ASP A  10      29.309  -8.065  20.139  0.00  0.00    +0.143 C 
BRANCH 122 123
ATOM    123  CG  ASP A  10      30.734  -7.559  20.058  0.00  0.00    +0.367 C 
ATOM    124  OD2 ASP A  10      31.663  -8.345  20.329  0.00  0.00    -0.246 OA
ATOM    125  OD1 ASP A  10      30.928  -6.373  19.715  0.00  0.00    -0.246 OA
ENDBRANCH 122 123
ENDBRANCH  75 122
ENDBRANCH  72  75
ENDBRANCH  69  71
ENDBRANCH  66  69
ENDBRANCH   1  65
BRANCH   1 126
ATOM    126  CB  LEU A   8      26.660  -7.127  26.923  0.00  0.00    +0.029 C 
BRANCH 126 127
ATOM    127  CG  LEU A   8      25.324  -6.423  27.186  0.00  0.00    +0.002 C 
ATOM    128  CD2 LEU A   8      25.341  -5.738  28.558  0.00  0.00    +0.000 C 
ATOM    129  CD1 LEU A   8      24.202  -7.447  27.126  0.00  0.00    +0.000 C 
ENDBRANCH 126 127
ENDBRANCH   1 126
TORSDOF 56
REMARK  Name = ../refined-set-2016/2ayr/2ayr_pocket.pdb
REMARK  258 active torsions:
REMARK  status: ('A' for Active; 'I' for Inactive)
REMARK    1  A    between atoms: _1  and  _3
REMARK    2  A    between atoms: _3  and  _4
REMARK    3  A    between atoms: _3  and  _6
REMARK    4  A    between atoms: _6  and  _7
REMARK    5  A    between atoms: _10  and  _12
REMARK    6  A    between atoms: _12  and  _13
REMARK    7  A    between atoms: _12  and  _15
REMARK    8  A    between atoms: _15  and  _16
REMARK    9  A    between atoms: _16  and  _17
REMARK   10  A    between atoms: _19  and  _21
REMARK   11  A    between atoms: _21  and  _22
REMARK   12  A    between atoms: _21  and  _24
REMARK   13  A    between atoms: _24  and  _25
REMARK   14  A    between atoms: _25  and  _26
REMARK   15  A    between atoms: _28  and  _30
REMARK   16  A    between atoms: _30  and  _31
REMARK   17  A    between atoms: _33  and  _35
REMARK   18  A    between atoms: _35  and  _36
REMARK   19  A    between atoms: _35  and  _38
REMARK   20  A    between atoms: _38  and  _39
REMARK   21  A    between atoms: _42  and  _44
REMARK   22  A    between atoms: _44  and  _45
REMARK   23  A    between atoms: _44  and  _47
REMARK   24  A    between atoms: _47  and  _48
REMARK   25  A    between atoms: _51  and  _53
REMARK   26  A    between atoms: _53  and  _54
REMARK   27  A    between atoms: _53  and  _56
REMARK   28  A    between atoms: _56  and  _57
REMARK   29  A    between atoms: _60  and  _62
REMARK   30  A    between atoms: _62  and  _63
REMARK   31  A    between atoms: _62  and  _65
REMARK   32  A    between atoms: _65  and  _66
REMARK   33  A    between atoms: _71  and  _73
REMARK   34  A    between atoms: _73  and  _74
REMARK   35  A    between atoms: _73  and  _76
REMARK   36  A    between atoms: _76  and  _77
REMARK   37  A    between atoms: _80  and  _82
REMARK   38  A    between atoms: _82  and  _83
REMARK   39  A    between atoms: _86  and  _88
REMARK   40  A    between atoms: _88  and  _89
REMARK   41  A    between atoms: _88  and  _91
REMARK   42  A    between atoms: _91  and  _92
REMARK   43  A    between atoms: _95  and  _97
REMARK   44  A    between atoms: _97  and  _98
REMARK   45  A    between atoms: _97  and  _100
REMARK   46  A    between atoms: _100  and  _101
REMARK   47  A    between atoms: _101  and  _102
REMARK   48  A    between atoms: _102  and  _103
REMARK   49  A    between atoms: _112  and  _114
REMARK   50  A    between atoms: _114  and  _115
REMARK   51  A    between atoms: _114  and  _117
REMARK   52  A    between atoms: _117  and  _118
REMARK   53  A    between atoms: _118  and  _119
REMARK   54  A    between atoms: _122  and  _124
REMARK   55  A    between atoms: _124  and  _125
REMARK   56  A    between atoms: _124  and  _127
REMARK   57  A    between atoms: _127  and  _128
REMARK   58  A    between atoms: _131  and  _133
REMARK   59  A    between atoms: _133  and  _134
REMARK   60  A    between atoms: _133  and  _136
REMARK   61  A    between atoms: _139  and  _141
REMARK   62  A    between atoms: _141  and  _142
REMARK   63  A    between atoms: _141  and  _144
REMARK   64  A    between atoms: _144  and  _145
REMARK   65  A    between atoms: _145  and  _146
REMARK   66  A    between atoms: _148  and  _150
REMARK   67  A    between atoms: _150  and  _151
REMARK   68  A    between atoms: _150  and  _153
REMARK   69  A    between atoms: _153  and  _154
REMARK   70  A    between atoms: _164  and  _166
REMARK   71  A    between atoms: _166  and  _167
REMARK   72  A    between atoms: _166  and  _169
REMARK   73  A    between atoms: _169  and  _170
REMARK   74  A    between atoms: _173  and  _175
REMARK   75  A    between atoms: _175  and  _176
REMARK   76  A    between atoms: _175  and  _178
REMARK   77  A    between atoms: _178  and  _179
REMARK   78  A    between atoms: _179  and  _180
REMARK   79  A    between atoms: _183  and  _185
REMARK   80  A    between atoms: _185  and  _186
REMARK   81  A    between atoms: _185  and  _188
REMARK   82  A    between atoms: _188  and  _189
REMARK   83  A    between atoms: _192  and  _194
REMARK   84  A    between atoms: _194  and  _195
REMARK   85  A    between atoms: _194  and  _197
REMARK   86  A    between atoms: _197  and  _198
REMARK   87  A    between atoms: _201  and  _203
REMARK   88  A    between atoms: _203  and  _204
REMARK   89  A    between atoms: _203  and  _206
REMARK   90  A    between atoms: _206  and  _207
REMARK   91  A    between atoms: _207  and  _208
REMARK   92  A    between atoms: _210  and  _212
REMARK   93  A    between atoms: _212  and  _213
REMARK   94  A    between atoms: _212  and  _215
REMARK   95  A    between atoms: _215  and  _216
REMARK   96  A    between atoms: _219  and  _221
REMARK   97  A    between atoms: _221  and  _222
REMARK   98  A    between atoms: _224  and  _226
REMARK   99  A    between atoms: _226  and  _227
REMARK  100  A    between atoms: _226  and  _229
REMARK  101  A    between atoms: _229  and  _230
REMARK  102  A    between atoms: _233  and  _235
REMARK  103  A    between atoms: _235  and  _236
REMARK  104  A    between atoms: _235  and  _238
REMARK  105  A    between atoms: _241  and  _243
REMARK  106  A    between atoms: _243  and  _244
REMARK  107  A    between atoms: _243  and  _246
REMARK  108  A    between atoms: _246  and  _247
REMARK  109  A    between atoms: _247  and  _248
REMARK  110  A    between atoms: _248  and  _249
REMARK  111  A    between atoms: _258  and  _260
REMARK  112  A    between atoms: _260  and  _261
REMARK  113  A    between atoms: _260  and  _263
REMARK  114  A    between atoms: _263  and  _264
REMARK  115  A    between atoms: _266  and  _268
REMARK  116  A    between atoms: _268  and  _269
REMARK  117  A    between atoms: _268  and  _271
REMARK  118  A    between atoms: _271  and  _272
REMARK  119  A    between atoms: _275  and  _277
REMARK  120  A    between atoms: _277  and  _278
REMARK  121  A    between atoms: _277  and  _280
REMARK  122  A    between atoms: _280  and  _281
REMARK  123  A    between atoms: _284  and  _286
REMARK  124  A    between atoms: _286  and  _287
REMARK  125  A    between atoms: _286  and  _289
REMARK  126  A    between atoms: _289  and  _290
REMARK  127  A    between atoms: _296  and  _298
REMARK  128  A    between atoms: _298  and  _299
REMARK  129  A    between atoms: _302  and  _304
REMARK  130  A    between atoms: _304  and  _305
REMARK  131  A    between atoms: _304  and  _307
REMARK  132  A    between atoms: _307  and  _308
REMARK  133  A    between atoms: _311  and  _313
REMARK  134  A    between atoms: _313  and  _314
REMARK  135  A    between atoms: _316  and  _318
REMARK  136  A    between atoms: _318  and  _319
REMARK  137  A    between atoms: _318  and  _321
REMARK  138  A    between atoms: _324  and  _326
REMARK  139  A    between atoms: _326  and  _327
REMARK  140  A    between atoms: _326  and  _329
REMARK  141  A    between atoms: _329  and  _330
REMARK  142  A    between atoms: _330  and  _331
REMARK  143  A    between atoms: _334  and  _336
REMARK  144  A    between atoms: _336  and  _337
REMARK  145  A    between atoms: _339  and  _341
REMARK  146  A    between atoms: _341  and  _342
REMARK  147  A    between atoms: _341  and  _344
REMARK  148  A    between atoms: _344  and  _345
REMARK  149  A    between atoms: _345  and  _346
REMARK  150  A    between atoms: _348  and  _350
REMARK  151  A    between atoms: _350  and  _351
REMARK  152  A    between atoms: _350  and  _353
REMARK  153  A    between atoms: _356  and  _358
REMARK  154  A    between atoms: _358  and  _359
REMARK  155  A    between atoms: _358  and  _361
REMARK  156  A    between atoms: _361  and  _362
REMARK  157  A    between atoms: _362  and  _363
REMARK  158  A    between atoms: _366  and  _368
REMARK  159  A    between atoms: _368  and  _369
REMARK  160  A    between atoms: _368  and  _371
REMARK  161  A    between atoms: _371  and  _372
REMARK  162  A    between atoms: _375  and  _377
REMARK  163  A    between atoms: _377  and  _378
REMARK  164  A    between atoms: _377  and  _380
REMARK  165  A    between atoms: _380  and  _381
REMARK  166  A    between atoms: _387  and  _389
REMARK  167  A    between atoms: _389  and  _390
REMARK  168  A    between atoms: _389  and  _392
REMARK  169  A    between atoms: _392  and  _393
REMARK  170  A    between atoms: _396  and  _398
REMARK  171  A    between atoms: _398  and  _399
REMARK  172  A    between atoms: _398  and  _401
REMARK  173  A    between atoms: _401  and  _402
REMARK  174  A    between atoms: _402  and  _403
REMARK  175  A    between atoms: _405  and  _407
REMARK  176  A    between atoms: _407  and  _408
REMARK  177  A    between atoms: _407  and  _410
REMARK  178  A    between atoms: _410  and  _411
REMARK  179  A    between atoms: _413  and  _415
REMARK  180  A    between atoms: _415  and  _416
REMARK  181  A    between atoms: _415  and  _418
REMARK  182  A    between atoms: _418  and  _419
REMARK  183  A    between atoms: _424  and  _426
REMARK  184  A    between atoms: _426  and  _427
REMARK  185  A    between atoms: _426  and  _429
REMARK  186  A    between atoms: _429  and  _430
REMARK  187  A    between atoms: _430  and  _431
REMARK  188  A    between atoms: _431  and  _432
REMARK  189  A    between atoms: _432  and  _433
REMARK  190  A    between atoms: _437  and  _439
REMARK  191  A    between atoms: _439  and  _440
REMARK  192  A    between atoms: _442  and  _444
REMARK  193  A    between atoms: _444  and  _445
REMARK  194  A    between atoms: _444  and  _447
REMARK  195  A    between atoms: _447  and  _448
REMARK  196  A    between atoms: _448  and  _449
REMARK  197  A    between atoms: _451  and  _453
REMARK  198  A    between atoms: _453  and  _454
REMARK  199  A    between atoms: _453  and  _456
REMARK  200  A    between atoms: _456  and  _457
REMARK  201  A    between atoms: _457  and  _458
REMARK  202  A    between atoms: _461  and  _463
REMARK  203  A    between atoms: _463  and  _464
REMARK  204  A    between atoms: _463  and  _466
REMARK  205  A    between atoms: _466  and  _467
REMARK  206  A    between atoms: _472  and  _474
REMARK  207  A    between atoms: _474  and  _475
REMARK  208  A    between atoms: _474  and  _477
REMARK  209  A    between atoms: _477  and  _478
REMARK  210  A    between atoms: _481  and  _483
REMARK  211  A    between atoms: _483  and  _484
REMARK  212  A    between atoms: _483  and  _486
REMARK  213  A    between atoms: _486  and  _487
REMARK  214  A    between atoms: _492  and  _493
REMARK  215  A    between atoms: _495  and  _497
REMARK  216  A    between atoms: _497  and  _498
REMARK  217  A    between atoms: _497  and  _500
REMARK  218  A    between atoms: _500  and  _501
REMARK  219  A    between atoms: _503  and  _505
REMARK  220  A    between atoms: _505  and  _506
REMARK  221  A    between atoms: _505  and  _508
REMARK  222  A    between atoms: _508  and  _509
REMARK  223  A    between atoms: _509  and  _510
REMARK  224  A    between atoms: _512  and  _514
REMARK  225  A    between atoms: _514  and  _515
REMARK  226  A    between atoms: _514  and  _517
REMARK  227  A    between atoms: _517  and  _518
REMARK  228  A    between atoms: _518  and  _519
REMARK  229  A    between atoms: _519  and  _520
REMARK  230  A    between atoms: _520  and  _521
REMARK  231  A    between atoms: _525  and  _527
REMARK  232  A    between atoms: _527  and  _528
REMARK  233  A    between atoms: _527  and  _530
REMARK  234  A    between atoms: _530  and  _531
REMARK  235  A    between atoms: _531  and  _532
REMARK  236  A    between atoms: _532  and  _533
REMARK  237  A    between atoms: _533  and  _534
REMARK  238  A    between atoms: _538  and  _540
REMARK  239  A    between atoms: _540  and  _541
REMARK  240  A    between atoms: _540  and  _543
REMARK  241  A    between atoms: _547  and  _548
REMARK  242  A    between atoms: _553  and  _555
REMARK  243  A    between atoms: _555  and  _556
REMARK  244  A    between atoms: _555  and  _558
REMARK  245  A    between atoms: _558  and  _559
REMARK  246  A    between atoms: _562  and  _564
REMARK  247  A    between atoms: _564  and  _565
REMARK  248  A    between atoms: _564  and  _567
REMARK  249  A    between atoms: _567  and  _568
REMARK  250  A    between atoms: _571  and  _573
REMARK  251  A    between atoms: _573  and  _574
REMARK  252  A    between atoms: _573  and  _576
REMARK  253  A    between atoms: _576  and  _577
REMARK  254  A    between atoms: _580  and  _582
REMARK  255  A    between atoms: _582  and  _583
REMARK  256  A    between atoms: _582  and  _585
REMARK  257  A    between atoms: _585  and  _586
REMARK  258  A    between atoms: _586  and  _587
REMARK                            x       y       z     vdW  Elec       q    Type
REMARK                         _______ _______ _______ _____ _____    ______ ____
ROOT
ATOM      1  CA  MET A   1      20.670  -1.206  17.391  0.00  0.00    +0.134 C 
ENDROOT
BRANCH   1   2
ATOM      2  N   MET A   1      20.586  -2.649  17.591  0.00  0.00    -0.239 NA
ATOM      3  H   MET A   1      21.435  -3.185  17.862  0.00  0.00    +0.142 HD
ENDBRANCH   1   2
BRANCH   1   4
ATOM      4  C   MET A   1      20.398  -0.879  15.930  0.00  0.00    +0.224 C 
ATOM      5  O   MET A   1      19.721   0.098  15.612  0.00  0.00    -0.287 OA
ENDBRANCH   1   4
BRANCH   1   6
ATOM      6  CB  MET A   1      22.062  -0.697  17.790  0.00  0.00    +0.037 C 
BRANCH   6   7
ATOM      7  CG  MET A   1      22.195   0.819  17.727  0.00  0.00    +0.059 C 
BRANCH   7   8
ATOM      8  SD  MET A   1      23.909   1.377  18.007  0.00  0.00    -0.139 S 
ATOM      9  CE  MET A   1      24.227   0.710  19.637  0.00  0.00    +0.069 C 
ENDBRANCH   7   8
ENDBRANCH   6   7
ENDBRANCH   1   6
TORSDOF 5
REMARK  Name = ../refined-set-2016/2ayr/2ayr_pocket.pdb
REMARK  258 active torsions:
REMARK  status: ('A' for Active; 'I' for Inactive)
REMARK    1  A    between atoms: _1  and  _3
REMARK    2  A    between atoms: _3  and  _4
REMARK    3  A    between atoms: _3  and  _6
REMARK    4  A    between atoms: _6  and  _7
REMARK    5  A    between atoms: _10  and  _12
REMARK    6  A    between atoms: _12  and  _13
REMARK    7  A    between atoms: _12  and  _15
REMARK    8  A    between atoms: _15  and  _16
REMARK    9  A    between atoms: _16  and  _17
REMARK   10  A    between atoms: _19  and  _21
REMARK   11  A    between atoms: _21  and  _22
REMARK   12  A    between atoms: _21  and  _24
REMARK   13  A    between atoms: _24  and  _25
REMARK   14  A    between atoms: _25  and  _26
REMARK   15  A    between atoms: _28  and  _30
REMARK   16  A    between atoms: _30  and  _31
REMARK   17  A    between atoms: _33  and  _35
REMARK   18  A    between atoms: _35  and  _36
REMARK   19  A    between atoms: _35  and  _38
REMARK   20  A    between atoms: _38  and  _39
REMARK   21  A    between atoms: _42  and  _44
REMARK   22  A    between atoms: _44  and  _45
REMARK   23  A    between atoms: _44  and  _47
REMARK   24  A    between atoms: _47  and  _48
REMARK   25  A    between atoms: _51  and  _53
REMARK   26  A    between atoms: _53  and  _54
REMARK   27  A    between atoms: _53  and  _56
REMARK   28  A    between atoms: _56  and  _57
REMARK   29  A    between atoms: _60  and  _62
REMARK   30  A    between atoms: _62  and  _63
REMARK   31  A    between atoms: _62  and  _65
REMARK   32  A    between atoms: _65  and  _66
REMARK   33  A    between atoms: _71  and  _73
REMARK   34  A    between atoms: _73  and  _74
REMARK   35  A    between atoms: _73  and  _76
REMARK   36  A    between atoms: _76  and  _77
REMARK   37  A    between atoms: _80  and  _82
REMARK   38  A    between atoms: _82  and  _83
REMARK   39  A    between atoms: _86  and  _88
REMARK   40  A    between atoms: _88  and  _89
REMARK   41  A    between atoms: _88  and  _91
REMARK   42  A    between atoms: _91  and  _92
REMARK   43  A    between atoms: _95  and  _97
REMARK   44  A    between atoms: _97  and  _98
REMARK   45  A    between atoms: _97  and  _100
REMARK   46  A    between atoms: _100  and  _101
REMARK   47  A    between atoms: _101  and  _102
REMARK   48  A    between atoms: _102  and  _103
REMARK   49  A    between atoms: _112  and  _114
REMARK   50  A    between atoms: _114  and  _115
REMARK   51  A    between atoms: _114  and  _117
REMARK   52  A    between atoms: _117  and  _118
REMARK   53  A    between atoms: _118  and  _119
REMARK   54  A    between atoms: _122  and  _124
REMARK   55  A    between atoms: _124  and  _125
REMARK   56  A    between atoms: _124  and  _127
REMARK   57  A    between atoms: _127  and  _128
REMARK   58  A    between atoms: _131  and  _133
REMARK   59  A    between atoms: _133  and  _134
REMARK   60  A    between atoms: _133  and  _136
REMARK   61  A    between atoms: _139  and  _141
REMARK   62  A    between atoms: _141  and  _142
REMARK   63  A    between atoms: _141  and  _144
REMARK   64  A    between atoms: _144  and  _145
REMARK   65  A    between atoms: _145  and  _146
REMARK   66  A    between atoms: _148  and  _150
REMARK   67  A    between atoms: _150  and  _151
REMARK   68  A    between atoms: _150  and  _153
REMARK   69  A    between atoms: _153  and  _154
REMARK   70  A    between atoms: _164  and  _166
REMARK   71  A    between atoms: _166  and  _167
REMARK   72  A    between atoms: _166  and  _169
REMARK   73  A    between atoms: _169  and  _170
REMARK   74  A    between atoms: _173  and  _175
REMARK   75  A    between atoms: _175  and  _176
REMARK   76  A    between atoms: _175  and  _178
REMARK   77  A    between atoms: _178  and  _179
REMARK   78  A    between atoms: _179  and  _180
REMARK   79  A    between atoms: _183  and  _185
REMARK   80  A    between atoms: _185  and  _186
REMARK   81  A    between atoms: _185  and  _188
REMARK   82  A    between atoms: _188  and  _189
REMARK   83  A    between atoms: _192  and  _194
REMARK   84  A    between atoms: _194  and  _195
REMARK   85  A    between atoms: _194  and  _197
REMARK   86  A    between atoms: _197  and  _198
REMARK   87  A    between atoms: _201  and  _203
REMARK   88  A    between atoms: _203  and  _204
REMARK   89  A    between atoms: _203  and  _206
REMARK   90  A    between atoms: _206  and  _207
REMARK   91  A    between atoms: _207  and  _208
REMARK   92  A    between atoms: _210  and  _212
REMARK   93  A    between atoms: _212  and  _213
REMARK   94  A    between atoms: _212  and  _215
REMARK   95  A    between atoms: _215  and  _216
REMARK   96  A    between atoms: _219  and  _221
REMARK   97  A    between atoms: _221  and  _222
REMARK   98  A    between atoms: _224  and  _226
REMARK   99  A    between atoms: _226  and  _227
REMARK  100  A    between atoms: _226  and  _229
REMARK  101  A    between atoms: _229  and  _230
REMARK  102  A    between atoms: _233  and  _235
REMARK  103  A    between atoms: _235  and  _236
REMARK  104  A    between atoms: _235  and  _238
REMARK  105  A    between atoms: _241  and  _243
REMARK  106  A    between atoms: _243  and  _244
REMARK  107  A    between atoms: _243  and  _246
REMARK  108  A    between atoms: _246  and  _247
REMARK  109  A    between atoms: _247  and  _248
REMARK  110  A    between atoms: _248  and  _249
REMARK  111  A    between atoms: _258  and  _260
REMARK  112  A    between atoms: _260  and  _261
REMARK  113  A    between atoms: _260  and  _263
REMARK  114  A    between atoms: _263  and  _264
REMARK  115  A    between atoms: _266  and  _268
REMARK  116  A    between atoms: _268  and  _269
REMARK  117  A    between atoms: _268  and  _271
REMARK  118  A    between atoms: _271  and  _272
REMARK  119  A    between atoms: _275  and  _277
REMARK  120  A    between atoms: _277  and  _278
REMARK  121  A    between atoms: _277  and  _280
REMARK  122  A    between atoms: _280  and  _281
REMARK  123  A    between atoms: _284  and  _286
REMARK  124  A    between atoms: _286  and  _287
REMARK  125  A    between atoms: _286  and  _289
REMARK  126  A    between atoms: _289  and  _290
REMARK  127  A    between atoms: _296  and  _298
REMARK  128  A    between atoms: _298  and  _299
REMARK  129  A    between atoms: _302  and  _304
REMARK  130  A    between atoms: _304  and  _305
REMARK  131  A    between atoms: _304  and  _307
REMARK  132  A    between atoms: _307  and  _308
REMARK  133  A    between atoms: _311  and  _313
REMARK  134  A    between atoms: _313  and  _314
REMARK  135  A    between atoms: _316  and  _318
REMARK  136  A    between atoms: _318  and  _319
REMARK  137  A    between atoms: _318  and  _321
REMARK  138  A    between atoms: _324  and  _326
REMARK  139  A    between atoms: _326  and  _327
REMARK  140  A    between atoms: _326  and  _329
REMARK  141  A    between atoms: _329  and  _330
REMARK  142  A    between atoms: _330  and  _331
REMARK  143  A    between atoms: _334  and  _336
REMARK  144  A    between atoms: _336  and  _337
REMARK  145  A    between atoms: _339  and  _341
REMARK  146  A    between atoms: _341  and  _342
REMARK  147  A    between atoms: _341  and  _344
REMARK  148  A    between atoms: _344  and  _345
REMARK  149  A    between atoms: _345  and  _346
REMARK  150  A    between atoms: _348  and  _350
REMARK  151  A    between atoms: _350  and  _351
REMARK  152  A    between atoms: _350  and  _353
REMARK  153  A    between atoms: _356  and  _358
REMARK  154  A    between atoms: _358  and  _359
REMARK  155  A    between atoms: _358  and  _361
REMARK  156  A    between atoms: _361  and  _362
REMARK  157  A    between atoms: _362  and  _363
REMARK  158  A    between atoms: _366  and  _368
REMARK  159  A    between atoms: _368  and  _369
REMARK  160  A    between atoms: _368  and  _371
REMARK  161  A    between atoms: _371  and  _372
REMARK  162  A    between atoms: _375  and  _377
REMARK  163  A    between atoms: _377  and  _378
REMARK  164  A    between atoms: _377  and  _380
REMARK  165  A    between atoms: _380  and  _381
REMARK  166  A    between atoms: _387  and  _389
REMARK  167  A    between atoms: _389  and  _390
REMARK  168  A    between atoms: _389  and  _392
REMARK  169  A    between atoms: _392  and  _393
REMARK  170  A    between atoms: _396  and  _398
REMARK  171  A    between atoms: _398  and  _399
REMARK  172  A    between atoms: _398  and  _401
REMARK  173  A    between atoms: _401  and  _402
REMARK  174  A    between atoms: _402  and  _403
REMARK  175  A    between atoms: _405  and  _407
REMARK  176  A    between atoms: _407  and  _408
REMARK  177  A    between atoms: _407  and  _410
REMARK  178  A    between atoms: _410  and  _411
REMARK  179  A    between atoms: _413  and  _415
REMARK  180  A    between atoms: _415  and  _416
REMARK  181  A    between atoms: _415  and  _418
REMARK  182  A    between atoms: _418  and  _419
REMARK  183  A    between atoms: _424  and  _426
REMARK  184  A    between atoms: _426  and  _427
REMARK  185  A    between atoms: _426  and  _429
REMARK  186  A    between atoms: _429  and  _430
REMARK  187  A    between atoms: _430  and  _431
REMARK  188  A    between atoms: _431  and  _432
REMARK  189  A    between atoms: _432  and  _433
REMARK  190  A    between atoms: _437  and  _439
REMARK  191  A    between atoms: _439  and  _440
REMARK  192  A    between atoms: _442  and  _444
REMARK  193  A    between atoms: _444  and  _445
REMARK  194  A    between atoms: _444  and  _447
REMARK  195  A    between atoms: _447  and  _448
REMARK  196  A    between atoms: _448  and  _449
REMARK  197  A    between atoms: _451  and  _453
REMARK  198  A    between atoms: _453  and  _454
REMARK  199  A    between atoms: _453  and  _456
REMARK  200  A    between atoms: _456  and  _457
REMARK  201  A    between atoms: _457  and  _458
REMARK  202  A    between atoms: _461  and  _463
REMARK  203  A    between atoms: _463  and  _464
REMARK  204  A    between atoms: _463  and  _466
REMARK  205  A    between atoms: _466  and  _467
REMARK  206  A    between atoms: _472  and  _474
REMARK  207  A    between atoms: _474  and  _475
REMARK  208  A    between atoms: _474  and  _477
REMARK  209  A    between atoms: _477  and  _478
REMARK  210  A    between atoms: _481  and  _483
REMARK  211  A    between atoms: _483  and  _484
REMARK  212  A    between atoms: _483  and  _486
REMARK  213  A    between atoms: _486  and  _487
REMARK  214  A    between atoms: _492  and  _493
REMARK  215  A    between atoms: _495  and  _497
REMARK  216  A    between atoms: _497  and  _498
REMARK  217  A    between atoms: _497  and  _500
REMARK  218  A    between atoms: _500  and  _501
REMARK  219  A    between atoms: _503  and  _505
REMARK  220  A    between atoms: _505  and  _506
REMARK  221  A    between atoms: _505  and  _508
REMARK  222  A    between atoms: _508  and  _509
REMARK  223  A    between atoms: _509  and  _510
REMARK  224  A    between atoms: _512  and  _514
REMARK  225  A    between atoms: _514  and  _515
REMARK  226  A    between atoms: _514  and  _517
REMARK  227  A    between atoms: _517  and  _518
REMARK  228  A    between atoms: _518  and  _519
REMARK  229  A    between atoms: _519  and  _520
REMARK  230  A    between atoms: _520  and  _521
REMARK  231  A    between atoms: _525  and  _527
REMARK  232  A    between atoms: _527  and  _528
REMARK  233  A    between atoms: _527  and  _530
REMARK  234  A    between atoms: _530  and  _531
REMARK  235  A    between atoms: _531  and  _532
REMARK  236  A    between atoms: _532  and  _533
REMARK  237  A    between atoms: _533  and  _534
REMARK  238  A    between atoms: _538  and  _540
REMARK  239  A    between atoms: _540  and  _541
REMARK  240  A    between atoms: _540  and  _543
REMARK  241  A    between atoms: _547  and  _548
REMARK  242  A    between atoms: _553  and  _555
REMARK  243  A    between atoms: _555  and  _556
REMARK  244  A    between atoms: _555  and  _558
REMARK  245  A    between atoms: _558  and  _559
REMARK  246  A    between atoms: _562  and  _564
REMARK  247  A    between atoms: _564  and  _565
REMARK  248  A    between atoms: _564  and  _567
REMARK  249  A    between atoms: _567  and  _568
REMARK  250  A    between atoms: _571  and  _573
REMARK  251  A    between atoms: _573  and  _574
REMARK  252  A    between atoms: _573  and  _576
REMARK  253  A    between atoms: _576  and  _577
REMARK  254  A    between atoms: _580  and  _582
REMARK  255  A    between atoms: _582  and  _583
REMARK  256  A    between atoms: _582  and  _585
REMARK  257  A    between atoms: _585  and  _586
REMARK  258  A    between atoms: _586  and  _587
REMARK                            x       y       z     vdW  Elec       q    Type
REMARK                         _______ _______ _______ _____ _____    ______ ____
ROOT
ATOM      1  CA  LEU A   5      24.886   2.088  24.064  0.00  0.00    +0.149 C 
ENDROOT
BRANCH   1   2
ATOM      2  C   LEU A   5      24.908   2.770  25.437  0.00  0.00    +0.241 C 
ATOM      3  O   LEU A   5      24.259   2.307  26.383  0.00  0.00    -0.273 OA
ATOM      4  N   MET A   6      25.654   3.867  25.546  0.00  0.00    -0.297 N 
ATOM      5  H   MET A   6      26.135   4.248  24.706  0.00  0.00    +0.150 HD
BRANCH   4   6
ATOM      6  CA  MET A   6      25.804   4.540  26.832  0.00  0.00    +0.149 C 
BRANCH   6   7
ATOM      7  C   MET A   6      24.533   5.217  27.309  0.00  0.00    +0.241 C 
ATOM      8  O   MET A   6      24.172   5.100  28.478  0.00  0.00    -0.273 OA
ATOM      9  N   ILE A   7      23.842   5.929  26.426  0.00  0.00    -0.297 N 
ATOM     10  H   ILE A   7      24.163   6.023  25.441  0.00  0.00    +0.150 HD
BRANCH   9  11
ATOM     11  CA  ILE A   7      22.622   6.572  26.883  0.00  0.00    +0.149 C 
BRANCH  11  12
ATOM     12  C   ILE A   7      21.563   5.523  27.262  0.00  0.00    +0.241 C 
ATOM     13  O   ILE A   7      20.846   5.696  28.245  0.00  0.00    -0.273 OA
ATOM     14  N   GLY A   8      21.502   4.418  26.520  0.00  0.00    -0.295 N 
ATOM     15  H   GLY A   8      22.073   4.343  25.654  0.00  0.00    +0.150 HD
BRANCH  14  16
ATOM     16  CA  GLY A   8      20.637   3.313  26.919  0.00  0.00    +0.176 C 
BRANCH  16  17
ATOM     17  C   GLY A   8      20.952   2.770  28.309  0.00  0.00    +0.243 C 
ATOM     18  O   GLY A   8      20.049   2.565  29.121  0.00  0.00    -0.273 OA
ATOM     19  N   LEU A   9      22.234   2.549  28.596  0.00  0.00    -0.297 N 
ATOM     20  H   LEU A   9      22.950   2.704  27.858  0.00  0.00    +0.150 HD
BRANCH  19  21
ATOM     21  CA  LEU A   9      22.665   2.093  29.924  0.00  0.00    +0.149 C 
BRANCH  21  22
ATOM     22  C   LEU A   9      22.262   3.073  31.022  0.00  0.00    +0.241 C 
ATOM     23  O   LEU A   9      21.716   2.684  32.062  0.00  0.00    -0.273 OA
ATOM     24  N   VAL A  10      22.542   4.350  30.794  0.00  0.00    -0.298 N 
ATOM     25  H   VAL A  10      22.994   4.626  29.899  0.00  0.00    +0.150 HD
BRANCH  24  26
ATOM     26  CA  VAL A  10      22.223   5.368  31.782  0.00  0.00    +0.137 C 
BRANCH  26  27
ATOM     27  CB  VAL A  10      22.702   6.756  31.302  0.00  0.00    +0.026 C 
ATOM     28  CG2 VAL A  10      22.156   7.834  32.210  0.00  0.00    +0.002 C 
ATOM     29  CG1 VAL A  10      24.231   6.793  31.294  0.00  0.00    +0.002 C 
ENDBRANCH  26  27
BRANCH  26  30
ATOM     30  C   VAL A  10      20.723   5.400  32.058  0.00  0.00    +0.227 C 
ATOM     31  O   VAL A  10      20.300   5.512  33.206  0.00  0.00    -0.286 OA
ENDBRANCH  26  30
ENDBRANCH  24  26
ENDBRANCH  21  22
BRANCH  21  32
ATOM     32  CB  LEU A   9      24.184   1.917  29.952  0.00  0.00    +0.029 C 
BRANCH  32  33
ATOM     33  CG  LEU A   9      24.856   1.634  31.298  0.00  0.00    +0.002 C 
ATOM     34  CD2 LEU A   9      24.503   0.228  31.787  0.00  0.00    +0.000 C 
ATOM     35  CD1 LEU A   9      26.357   1.771  31.135  0.00  0.00    +0.000 C 
ENDBRANCH  32  33
ENDBRANCH  21  32
ENDBRANCH  19  21
ENDBRANCH  16  17
ENDBRANCH  14  16
ENDBRANCH  11  12
BRANCH  11  36
ATOM     36  CB  ILE A   7      22.065   7.570  25.843  0.00  0.00    +0.027 C 
ATOM     37  CG2 ILE A   7      21.451   6.838  24.654  0.00  0.00    +0.002 C 
BRANCH  36  38
ATOM     38  CG1 ILE A   7      21.048   8.489  26.542  0.00  0.00    +0.002 C 
ATOM     39  CD1 ILE A   7      20.390   9.502  25.625  0.00  0.00    +0.000 C 
ENDBRANCH  36  38
ENDBRANCH  11  36
ENDBRANCH   9  11
ENDBRANCH   6   7
BRANCH   6  40
ATOM     40  CB  MET A   6      26.942   5.563  26.775  0.00  0.00    +0.041 C 
BRANCH  40  41
ATOM     41  CG  MET A   6      28.309   4.930  26.827  0.00  0.00    +0.060 C 
BRANCH  41  42
ATOM     42  SD  MET A   6      29.585   6.183  26.589  0.00  0.00    -0.139 S 
ATOM     43  CE  MET A   6      31.052   5.228  26.984  0.00  0.00    +0.069 C 
ENDBRANCH  41  42
ENDBRANCH  40  41
ENDBRANCH   6  40
ENDBRANCH   4   6
ENDBRANCH   1   2
BRANCH   1  46
ATOM     44  C   ILE A   4      23.744   3.935  22.968  0.00  0.00    +0.241 C 
ATOM     45  O   ILE A   4      22.805   3.872  23.762  0.00  0.00    -0.273 OA
ATOM     46  N   LEU A   5      24.756   3.068  22.984  0.00  0.00    -0.297 N 
ATOM     47  H   LEU A   5      25.462   3.088  22.220  0.00  0.00    +0.150 HD
BRANCH  44  48
ATOM     48  CA  ILE A   4      23.796   5.053  21.928  0.00  0.00    +0.149 C 
BRANCH  48  51
ATOM     49  C   GLU A   3      25.594   6.401  22.876  0.00  0.00    +0.241 C 
ATOM     50  O   GLU A   3      24.954   6.613  23.906  0.00  0.00    -0.273 OA
ATOM     51  N   ILE A   4      25.126   5.662  21.881  0.00  0.00    -0.297 N 
ATOM     52  H   ILE A   4      25.721   5.510  21.042  0.00  0.00    +0.150 HD
BRANCH  49  53
ATOM     53  CA  GLU A   3      26.995   7.000  22.675  0.00  0.00    +0.149 C 
BRANCH  53  56
ATOM     54  C   LEU A   2      28.143   4.862  22.524  0.00  0.00    +0.241 C 
ATOM     55  O   LEU A   2      27.773   4.552  23.654  0.00  0.00    -0.273 OA
ATOM     56  N   GLU A   3      27.865   6.048  21.982  0.00  0.00    -0.297 N 
ATOM     57  H   GLU A   3      28.270   6.299  21.058  0.00  0.00    +0.150 HD
BRANCH  54  58
ATOM     58  CA  LEU A   2      28.932   3.870  21.680  0.00  0.00    +0.149 C 
BRANCH  58  61
ATOM     59  C   TRP A   1      27.449   3.433  19.843  0.00  0.00    +0.239 C 
ATOM     60  O   TRP A   1      26.639   2.938  20.611  0.00  0.00    -0.274 OA
ATOM     61  N   LEU A   2      28.605   3.944  20.267  0.00  0.00    -0.297 N 
ATOM     62  H   LEU A   2      29.263   4.389  19.596  0.00  0.00    +0.150 HD
BRANCH  59  63
ATOM     63  CA  TRP A   1      27.138   3.485  18.356  0.00  0.00    +0.149 C 
BRANCH  63  64
ATOM     64  N   TRP A   1      27.529   4.736  17.712  0.00  0.00    -0.238 NA
ATOM     65  H   TRP A   1      28.178   4.728  16.900  0.00  0.00    +0.142 HD
ENDBRANCH  63  64
BRANCH  63  66
ATOM     66  CB  TRP A   1      27.783   2.283  17.648  0.00  0.00    +0.054 C 
BRANCH  66  67
ATOM     67  CG  TRP A   1      29.261   2.212  17.780  0.00  0.00    -0.002 A 
ATOM     68  CD2 TRP A   1      29.997   1.545  18.810  0.00  0.00    +0.013 A 
ATOM     69  CE3 TRP A   1      29.631   0.814  19.950  0.00  0.00    +0.001 A 
ATOM     70  CZ3 TRP A   1      30.632   0.291  20.755  0.00  0.00    +0.000 A 
ATOM     71  CH2 TRP A   1      31.986   0.485  20.444  0.00  0.00    +0.001 A 
ATOM     72  CZ2 TRP A   1      32.371   1.195  19.335  0.00  0.00    +0.017 A 
ATOM     73  CE2 TRP A   1      31.364   1.722  18.527  0.00  0.00    +0.056 A 
ATOM     74  NE1 TRP A   1      31.450   2.461  17.374  0.00  0.00    -0.352 N 
ATOM     75  HE1 TRP A   1      32.332   2.754  16.908  0.00  0.00    +0.166 HD
ATOM     76  CD1 TRP A   1      30.181   2.750  16.936  0.00  0.00    +0.068 A 
ENDBRANCH  66  67
ENDBRANCH  63  66
ENDBRANCH  59  63
ENDBRANCH  58  61
BRANCH  58  77
ATOM     77  CB  LEU A   2      30.436   4.063  21.911  0.00  0.00    +0.029 C 
BRANCH  77  78
ATOM     78  CG  LEU A   2      30.843   3.847  23.378  0.00  0.00    +0.002 C 
ATOM     79  CD2 LEU A   2      30.339   2.481  23.869  0.00  0.00    +0.000 C 
ATOM     80  CD1 LEU A   2      32.357   3.931  23.509  0.00  0.00    +0.000 C 
ENDBRANCH  77  78
ENDBRANCH  58  77
ENDBRANCH  54  58
ENDBRANCH  53  56
BRANCH  53  81
ATOM     81  CB  GLU A   3      26.870   8.297  21.864  0.00  0.00    +0.041 C 
BRANCH  81  82
ATOM     82  CG  GLU A   3      28.163   9.100  21.741  0.00  0.00    +0.116 C 
BRANCH  82  83
ATOM     83  CD  GLU A   3      27.975  10.359  20.904  0.00  0.00    +0.365 C 
ATOM     84  OE2 GLU A   3      27.545  11.393  21.450  0.00  0.00    -0.246 OA
ATOM     85  OE1 GLU A   3      28.247  10.307  19.693  0.00  0.00    -0.246 OA
ENDBRANCH  82  83
ENDBRANCH  81  82
ENDBRANCH  53  81
ENDBRANCH  49  53
ENDBRANCH  48  51
BRANCH  48  86
ATOM     86  CB  ILE A   4      23.398   4.527  20.520  0.00  0.00    +0.027 C 
ATOM     87  CG2 ILE A   4      22.134   3.652  20.606  0.00  0.00    +0.002 C 
BRANCH  86  88
ATOM     88  CG1 ILE A   4      23.173   5.729  19.584  0.00  0.00    +0.002 C 
ATOM     89  CD1 ILE A   4      23.120   5.381  18.104  0.00  0.00    +0.000 C 
ENDBRANCH  86  88
ENDBRANCH  48  86
ENDBRANCH  44  48
ENDBRANCH   1  46
BRANCH   1  90
ATOM     90  CB  LEU A   5      26.170   1.274  23.904  0.00  0.00    +0.029 C 
BRANCH  90  91
ATOM     91  CG  LEU A   5      26.247   0.312  22.724  0.00  0.00    +0.002 C 
ATOM     92  CD2 LEU A   5      27.524  -0.491  22.841  0.00  0.00    +0.000 C 
ATOM     93  CD1 LEU A   5      25.020  -0.613  22.728  0.00  0.00    +0.000 C 
ENDBRANCH  90  91
ENDBRANCH   1  90
TORSDOF 39
REMARK  Name = ../refined-set-2016/2ayr/2ayr_pocket.pdb
REMARK  258 active torsions:
REMARK  status: ('A' for Active; 'I' for Inactive)
REMARK    1  A    between atoms: _1  and  _3
REMARK    2  A    between atoms: _3  and  _4
REMARK    3  A    between atoms: _3  and  _6
REMARK    4  A    between atoms: _6  and  _7
REMARK    5  A    between atoms: _10  and  _12
REMARK    6  A    between atoms: _12  and  _13
REMARK    7  A    between atoms: _12  and  _15
REMARK    8  A    between atoms: _15  and  _16
REMARK    9  A    between atoms: _16  and  _17
REMARK   10  A    between atoms: _19  and  _21
REMARK   11  A    between atoms: _21  and  _22
REMARK   12  A    between atoms: _21  and  _24
REMARK   13  A    between atoms: _24  and  _25
REMARK   14  A    between atoms: _25  and  _26
REMARK   15  A    between atoms: _28  and  _30
REMARK   16  A    between atoms: _30  and  _31
REMARK   17  A    between atoms: _33  and  _35
REMARK   18  A    between atoms: _35  and  _36
REMARK   19  A    between atoms: _35  and  _38
REMARK   20  A    between atoms: _38  and  _39
REMARK   21  A    between atoms: _42  and  _44
REMARK   22  A    between atoms: _44  and  _45
REMARK   23  A    between atoms: _44  and  _47
REMARK   24  A    between atoms: _47  and  _48
REMARK   25  A    between atoms: _51  and  _53
REMARK   26  A    between atoms: _53  and  _54
REMARK   27  A    between atoms: _53  and  _56
REMARK   28  A    between atoms: _56  and  _57
REMARK   29  A    between atoms: _60  and  _62
REMARK   30  A    between atoms: _62  and  _63
REMARK   31  A    between atoms: _62  and  _65
REMARK   32  A    between atoms: _65  and  _66
REMARK   33  A    between atoms: _71  and  _73
REMARK   34  A    between atoms: _73  and  _74
REMARK   35  A    between atoms: _73  and  _76
REMARK   36  A    between atoms: _76  and  _77
REMARK   37  A    between atoms: _80  and  _82
REMARK   38  A    between atoms: _82  and  _83
REMARK   39  A    between atoms: _86  and  _88
REMARK   40  A    between atoms: _88  and  _89
REMARK   41  A    between atoms: _88  and  _91
REMARK   42  A    between atoms: _91  and  _92
REMARK   43  A    between atoms: _95  and  _97
REMARK   44  A    between atoms: _97  and  _98
REMARK   45  A    between atoms: _97  and  _100
REMARK   46  A    between atoms: _100  and  _101
REMARK   47  A    between atoms: _101  and  _102
REMARK   48  A    between atoms: _102  and  _103
REMARK   49  A    between atoms: _112  and  _114
REMARK   50  A    between atoms: _114  and  _115
REMARK   51  A    between atoms: _114  and  _117
REMARK   52  A    between atoms: _117  and  _118
REMARK   53  A    between atoms: _118  and  _119
REMARK   54  A    between atoms: _122  and  _124
REMARK   55  A    between atoms: _124  and  _125
REMARK   56  A    between atoms: _124  and  _127
REMARK   57  A    between atoms: _127  and  _128
REMARK   58  A    between atoms: _131  and  _133
REMARK   59  A    between atoms: _133  and  _134
REMARK   60  A    between atoms: _133  and  _136
REMARK   61  A    between atoms: _139  and  _141
REMARK   62  A    between atoms: _141  and  _142
REMARK   63  A    between atoms: _141  and  _144
REMARK   64  A    between atoms: _144  and  _145
REMARK   65  A    between atoms: _145  and  _146
REMARK   66  A    between atoms: _148  and  _150
REMARK   67  A    between atoms: _150  and  _151
REMARK   68  A    between atoms: _150  and  _153
REMARK   69  A    between atoms: _153  and  _154
REMARK   70  A    between atoms: _164  and  _166
REMARK   71  A    between atoms: _166  and  _167
REMARK   72  A    between atoms: _166  and  _169
REMARK   73  A    between atoms: _169  and  _170
REMARK   74  A    between atoms: _173  and  _175
REMARK   75  A    between atoms: _175  and  _176
REMARK   76  A    between atoms: _175  and  _178
REMARK   77  A    between atoms: _178  and  _179
REMARK   78  A    between atoms: _179  and  _180
REMARK   79  A    between atoms: _183  and  _185
REMARK   80  A    between atoms: _185  and  _186
REMARK   81  A    between atoms: _185  and  _188
REMARK   82  A    between atoms: _188  and  _189
REMARK   83  A    between atoms: _192  and  _194
REMARK   84  A    between atoms: _194  and  _195
REMARK   85  A    between atoms: _194  and  _197
REMARK   86  A    between atoms: _197  and  _198
REMARK   87  A    between atoms: _201  and  _203
REMARK   88  A    between atoms: _203  and  _204
REMARK   89  A    between atoms: _203  and  _206
REMARK   90  A    between atoms: _206  and  _207
REMARK   91  A    between atoms: _207  and  _208
REMARK   92  A    between atoms: _210  and  _212
REMARK   93  A    between atoms: _212  and  _213
REMARK   94  A    between atoms: _212  and  _215
REMARK   95  A    between atoms: _215  and  _216
REMARK   96  A    between atoms: _219  and  _221
REMARK   97  A    between atoms: _221  and  _222
REMARK   98  A    between atoms: _224  and  _226
REMARK   99  A    between atoms: _226  and  _227
REMARK  100  A    between atoms: _226  and  _229
REMARK  101  A    between atoms: _229  and  _230
REMARK  102  A    between atoms: _233  and  _235
REMARK  103  A    between atoms: _235  and  _236
REMARK  104  A    between atoms: _235  and  _238
REMARK  105  A    between atoms: _241  and  _243
REMARK  106  A    between atoms: _243  and  _244
REMARK  107  A    between atoms: _243  and  _246
REMARK  108  A    between atoms: _246  and  _247
REMARK  109  A    between atoms: _247  and  _248
REMARK  110  A    between atoms: _248  and  _249
REMARK  111  A    between atoms: _258  and  _260
REMARK  112  A    between atoms: _260  and  _261
REMARK  113  A    between atoms: _260  and  _263
REMARK  114  A    between atoms: _263  and  _264
REMARK  115  A    between atoms: _266  and  _268
REMARK  116  A    between atoms: _268  and  _269
REMARK  117  A    between atoms: _268  and  _271
REMARK  118  A    between atoms: _271  and  _272
REMARK  119  A    between atoms: _275  and  _277
REMARK  120  A    between atoms: _277  and  _278
REMARK  121  A    between atoms: _277  and  _280
REMARK  122  A    between atoms: _280  and  _281
REMARK  123  A    between atoms: _284  and  _286
REMARK  124  A    between atoms: _286  and  _287
REMARK  125  A    between atoms: _286  and  _289
REMARK  126  A    between atoms: _289  and  _290
REMARK  127  A    between atoms: _296  and  _298
REMARK  128  A    between atoms: _298  and  _299
REMARK  129  A    between atoms: _302  and  _304
REMARK  130  A    between atoms: _304  and  _305
REMARK  131  A    between atoms: _304  and  _307
REMARK  132  A    between atoms: _307  and  _308
REMARK  133  A    between atoms: _311  and  _313
REMARK  134  A    between atoms: _313  and  _314
REMARK  135  A    between atoms: _316  and  _318
REMARK  136  A    between atoms: _318  and  _319
REMARK  137  A    between atoms: _318  and  _321
REMARK  138  A    between atoms: _324  and  _326
REMARK  139  A    between atoms: _326  and  _327
REMARK  140  A    between atoms: _326  and  _329
REMARK  141  A    between atoms: _329  and  _330
REMARK  142  A    between atoms: _330  and  _331
REMARK  143  A    between atoms: _334  and  _336
REMARK  144  A    between atoms: _336  and  _337
REMARK  145  A    between atoms: _339  and  _341
REMARK  146  A    between atoms: _341  and  _342
REMARK  147  A    between atoms: _341  and  _344
REMARK  148  A    between atoms: _344  and  _345
REMARK  149  A    between atoms: _345  and  _346
REMARK  150  A    between atoms: _348  and  _350
REMARK  151  A    between atoms: _350  and  _351
REMARK  152  A    between atoms: _350  and  _353
REMARK  153  A    between atoms: _356  and  _358
REMARK  154  A    between atoms: _358  and  _359
REMARK  155  A    between atoms: _358  and  _361
REMARK  156  A    between atoms: _361  and  _362
REMARK  157  A    between atoms: _362  and  _363
REMARK  158  A    between atoms: _366  and  _368
REMARK  159  A    between atoms: _368  and  _369
REMARK  160  A    between atoms: _368  and  _371
REMARK  161  A    between atoms: _371  and  _372
REMARK  162  A    between atoms: _375  and  _377
REMARK  163  A    between atoms: _377  and  _378
REMARK  164  A    between atoms: _377  and  _380
REMARK  165  A    between atoms: _380  and  _381
REMARK  166  A    between atoms: _387  and  _389
REMARK  167  A    between atoms: _389  and  _390
REMARK  168  A    between atoms: _389  and  _392
REMARK  169  A    between atoms: _392  and  _393
REMARK  170  A    between atoms: _396  and  _398
REMARK  171  A    between atoms: _398  and  _399
REMARK  172  A    between atoms: _398  and  _401
REMARK  173  A    between atoms: _401  and  _402
REMARK  174  A    between atoms: _402  and  _403
REMARK  175  A    between atoms: _405  and  _407
REMARK  176  A    between atoms: _407  and  _408
REMARK  177  A    between atoms: _407  and  _410
REMARK  178  A    between atoms: _410  and  _411
REMARK  179  A    between atoms: _413  and  _415
REMARK  180  A    between atoms: _415  and  _416
REMARK  181  A    between atoms: _415  and  _418
REMARK  182  A    between atoms: _418  and  _419
REMARK  183  A    between atoms: _424  and  _426
REMARK  184  A    between atoms: _426  and  _427
REMARK  185  A    between atoms: _426  and  _429
REMARK  186  A    between atoms: _429  and  _430
REMARK  187  A    between atoms: _430  and  _431
REMARK  188  A    between atoms: _431  and  _432
REMARK  189  A    between atoms: _432  and  _433
REMARK  190  A    between atoms: _437  and  _439
REMARK  191  A    between atoms: _439  and  _440
REMARK  192  A    between atoms: _442  and  _444
REMARK  193  A    between atoms: _444  and  _445
REMARK  194  A    between atoms: _444  and  _447
REMARK  195  A    between atoms: _447  and  _448
REMARK  196  A    between atoms: _448  and  _449
REMARK  197  A    between atoms: _451  and  _453
REMARK  198  A    between atoms: _453  and  _454
REMARK  199  A    between atoms: _453  and  _456
REMARK  200  A    between atoms: _456  and  _457
REMARK  201  A    between atoms: _457  and  _458
REMARK  202  A    between atoms: _461  and  _463
REMARK  203  A    between atoms: _463  and  _464
REMARK  204  A    between atoms: _463  and  _466
REMARK  205  A    between atoms: _466  and  _467
REMARK  206  A    between atoms: _472  and  _474
REMARK  207  A    between atoms: _474  and  _475
REMARK  208  A    between atoms: _474  and  _477
REMARK  209  A    between atoms: _477  and  _478
REMARK  210  A    between atoms: _481  and  _483
REMARK  211  A    between atoms: _483  and  _484
REMARK  212  A    between atoms: _483  and  _486
REMARK  213  A    between atoms: _486  and  _487
REMARK  214  A    between atoms: _492  and  _493
REMARK  215  A    between atoms: _495  and  _497
REMARK  216  A    between atoms: _497  and  _498
REMARK  217  A    between atoms: _497  and  _500
REMARK  218  A    between atoms: _500  and  _501
REMARK  219  A    between atoms: _503  and  _505
REMARK  220  A    between atoms: _505  and  _506
REMARK  221  A    between atoms: _505  and  _508
REMARK  222  A    between atoms: _508  and  _509
REMARK  223  A    between atoms: _509  and  _510
REMARK  224  A    between atoms: _512  and  _514
REMARK  225  A    between atoms: _514  and  _515
REMARK  226  A    between atoms: _514  and  _517
REMARK  227  A    between atoms: _517  and  _518
REMARK  228  A    between atoms: _518  and  _519
REMARK  229  A    between atoms: _519  and  _520
REMARK  230  A    between atoms: _520  and  _521
REMARK  231  A    between atoms: _525  and  _527
REMARK  232  A    between atoms: _527  and  _528
REMARK  233  A    between atoms: _527  and  _530
REMARK  234  A    between atoms: _530  and  _531
REMARK  235  A    between atoms: _531  and  _532
REMARK  236  A    between atoms: _532  and  _533
REMARK  237  A    between atoms: _533  and  _534
REMARK  238  A    between atoms: _538  and  _540
REMARK  239  A    between atoms: _540  and  _541
REMARK  240  A    between atoms: _540  and  _543
REMARK  241  A    between atoms: _547  and  _548
REMARK  242  A    between atoms: _553  and  _555
REMARK  243  A    between atoms: _555  and  _556
REMARK  244  A    between atoms: _555  and  _558
REMARK  245  A    between atoms: _558  and  _559
REMARK  246  A    between atoms: _562  and  _564
REMARK  247  A    between atoms: _564  and  _565
REMARK  248  A    between atoms: _564  and  _567
REMARK  249  A    between atoms: _567  and  _568
REMARK  250  A    between atoms: _571  and  _573
REMARK  251  A    between atoms: _573  and  _574
REMARK  252  A    between atoms: _573  and  _576
REMARK  253  A    between atoms: _576  and  _577
REMARK  254  A    between atoms: _580  and  _582
REMARK  255  A    between atoms: _582  and  _583
REMARK  256  A    between atoms: _582  and  _585
REMARK  257  A    between atoms: _585  and  _586
REMARK  258  A    between atoms: _586  and  _587
REMARK                            x       y       z     vdW  Elec       q    Type
REMARK                         _______ _______ _______ _____ _____    ______ ____
ROOT
ATOM      1  CA  ARG A   1      18.030   1.766  32.604  0.00  0.00    +0.145 C 
ENDROOT
BRANCH   1   2
ATOM      2  C   ARG A   1      18.685   1.690  33.981  0.00  0.00    +0.238 C 
ATOM      3  O   ARG A   1      18.231   0.937  34.841  0.00  0.00    -0.274 OA
ATOM      4  N   SER A   2      19.735   2.484  34.197  0.00  0.00    -0.296 N 
ATOM      5  H   SER A   2      20.112   3.053  33.413  0.00  0.00    +0.150 HD
BRANCH   4   6
ATOM      6  CA  SER A   2      20.367   2.571  35.513  0.00  0.00    +0.166 C 
BRANCH   6   7
ATOM      7  C   SER A   2      19.761   3.667  36.397  0.00  0.00    +0.229 C 
ATOM      8  O   SER A   2      20.150   3.828  37.559  0.00  0.00    -0.286 OA
ENDBRANCH   6   7
BRANCH   6   9
ATOM      9  CB  SER A   2      21.866   2.829  35.362  0.00  0.00    +0.165 C 
BRANCH   9  10
ATOM     10  OG  SER A   2      22.498   1.792  34.638  0.00  0.00    -0.380 OA
ATOM     11  H   SER A   2      22.097   1.730  33.735  0.00  0.00    +0.211 HD
ENDBRANCH   9  10
ENDBRANCH   6   9
ENDBRANCH   4   6
ENDBRANCH   1   2
BRANCH   1  12
ATOM     12  N   ARG A   1      18.511   2.870  31.786  0.00  0.00    -0.238 NA
ATOM     13  H   ARG A   1      19.214   2.719  31.035  0.00  0.00    +0.142 HD
ENDBRANCH   1  12
BRANCH   1  14
ATOM     14  CB  ARG A   1      18.163   0.429  31.866  0.00  0.00    +0.030 C 
BRANCH  14  15
ATOM     15  CG  ARG A   1      19.486   0.171  31.229  0.00  0.00    +0.045 C 
BRANCH  15  16
ATOM     16  CD  ARG A   1      19.449  -1.133  30.431  0.00  0.00    +0.174 C 
BRANCH  16  17
ATOM     17  NE  ARG A   1      20.806  -1.565  30.128  0.00  0.00    -0.265 N 
ATOM     18  HE  ARG A   1      21.313  -2.122  30.846  0.00  0.00    +0.259 HD
ATOM     19  CZ  ARG A   1      21.436  -1.292  28.993  0.00  0.00    +0.342 C 
ATOM     20  NH2 ARG A   1      22.691  -1.690  28.819  0.00  0.00    -0.292 N 
ATOM     21 HH21 ARG A   1      23.179  -2.215  29.572  0.00  0.00    +0.255 HD
ATOM     22 HH22 ARG A   1      23.186  -1.476  27.929  0.00  0.00    +0.255 HD
ATOM     23  NH1 ARG A   1      20.820  -0.596  28.047  0.00  0.00    -0.292 N 
ATOM     24 HH11 ARG A   1      19.845  -0.266  28.196  0.00  0.00    +0.255 HD
ATOM     25 HH12 ARG A   1      21.312  -0.381  27.156  0.00  0.00    +0.255 HD
ENDBRANCH  16  17
ENDBRANCH  15  16
ENDBRANCH  14  15
ENDBRANCH   1  14
TORSDOF 10
REMARK  Name = ../refined-set-2016/2ayr/2ayr_pocket.pdb
REMARK  258 active torsions:
REMARK  status: ('A' for Active; 'I' for Inactive)
REMARK    1  A    between atoms: _1  and  _3
REMARK    2  A    between atoms: _3  and  _4
REMARK    3  A    between atoms: _3  and  _6
REMARK    4  A    between atoms: _6  and  _7
REMARK    5  A    between atoms: _10  and  _12
REMARK    6  A    between atoms: _12  and  _13
REMARK    7  A    between atoms: _12  and  _15
REMARK    8  A    between atoms: _15  and  _16
REMARK    9  A    between atoms: _16  and  _17
REMARK   10  A    between atoms: _19  and  _21
REMARK   11  A    between atoms: _21  and  _22
REMARK   12  A    between atoms: _21  and  _24
REMARK   13  A    between atoms: _24  and  _25
REMARK   14  A    between atoms: _25  and  _26
REMARK   15  A    between atoms: _28  and  _30
REMARK   16  A    between atoms: _30  and  _31
REMARK   17  A    between atoms: _33  and  _35
REMARK   18  A    between atoms: _35  and  _36
REMARK   19  A    between atoms: _35  and  _38
REMARK   20  A    between atoms: _38  and  _39
REMARK   21  A    between atoms: _42  and  _44
REMARK   22  A    between atoms: _44  and  _45
REMARK   23  A    between atoms: _44  and  _47
REMARK   24  A    between atoms: _47  and  _48
REMARK   25  A    between atoms: _51  and  _53
REMARK   26  A    between atoms: _53  and  _54
REMARK   27  A    between atoms: _53  and  _56
REMARK   28  A    between atoms: _56  and  _57
REMARK   29  A    between atoms: _60  and  _62
REMARK   30  A    between atoms: _62  and  _63
REMARK   31  A    between atoms: _62  and  _65
REMARK   32  A    between atoms: _65  and  _66
REMARK   33  A    between atoms: _71  and  _73
REMARK   34  A    between atoms: _73  and  _74
REMARK   35  A    between atoms: _73  and  _76
REMARK   36  A    between atoms: _76  and  _77
REMARK   37  A    between atoms: _80  and  _82
REMARK   38  A    between atoms: _82  and  _83
REMARK   39  A    between atoms: _86  and  _88
REMARK   40  A    between atoms: _88  and  _89
REMARK   41  A    between atoms: _88  and  _91
REMARK   42  A    between atoms: _91  and  _92
REMARK   43  A    between atoms: _95  and  _97
REMARK   44  A    between atoms: _97  and  _98
REMARK   45  A    between atoms: _97  and  _100
REMARK   46  A    between atoms: _100  and  _101
REMARK   47  A    between atoms: _101  and  _102
REMARK   48  A    between atoms: _102  and  _103
REMARK   49  A    between atoms: _112  and  _114
REMARK   50  A    between atoms: _114  and  _115
REMARK   51  A    between atoms: _114  and  _117
REMARK   52  A    between atoms: _117  and  _118
REMARK   53  A    between atoms: _118  and  _119
REMARK   54  A    between atoms: _122  and  _124
REMARK   55  A    between atoms: _124  and  _125
REMARK   56  A    between atoms: _124  and  _127
REMARK   57  A    between atoms: _127  and  _128
REMARK   58  A    between atoms: _131  and  _133
REMARK   59  A    between atoms: _133  and  _134
REMARK   60  A    between atoms: _133  and  _136
REMARK   61  A    between atoms: _139  and  _141
REMARK   62  A    between atoms: _141  and  _142
REMARK   63  A    between atoms: _141  and  _144
REMARK   64  A    between atoms: _144  and  _145
REMARK   65  A    between atoms: _145  and  _146
REMARK   66  A    between atoms: _148  and  _150
REMARK   67  A    between atoms: _150  and  _151
REMARK   68  A    between atoms: _150  and  _153
REMARK   69  A    between atoms: _153  and  _154
REMARK   70  A    between atoms: _164  and  _166
REMARK   71  A    between atoms: _166  and  _167
REMARK   72  A    between atoms: _166  and  _169
REMARK   73  A    between atoms: _169  and  _170
REMARK   74  A    between atoms: _173  and  _175
REMARK   75  A    between atoms: _175  and  _176
REMARK   76  A    between atoms: _175  and  _178
REMARK   77  A    between atoms: _178  and  _179
REMARK   78  A    between atoms: _179  and  _180
REMARK   79  A    between atoms: _183  and  _185
REMARK   80  A    between atoms: _185  and  _186
REMARK   81  A    between atoms: _185  and  _188
REMARK   82  A    between atoms: _188  and  _189
REMARK   83  A    between atoms: _192  and  _194
REMARK   84  A    between atoms: _194  and  _195
REMARK   85  A    between atoms: _194  and  _197
REMARK   86  A    between atoms: _197  and  _198
REMARK   87  A    between atoms: _201  and  _203
REMARK   88  A    between atoms: _203  and  _204
REMARK   89  A    between atoms: _203  and  _206
REMARK   90  A    between atoms: _206  and  _207
REMARK   91  A    between atoms: _207  and  _208
REMARK   92  A    between atoms: _210  and  _212
REMARK   93  A    between atoms: _212  and  _213
REMARK   94  A    between atoms: _212  and  _215
REMARK   95  A    between atoms: _215  and  _216
REMARK   96  A    between atoms: _219  and  _221
REMARK   97  A    between atoms: _221  and  _222
REMARK   98  A    between atoms: _224  and  _226
REMARK   99  A    between atoms: _226  and  _227
REMARK  100  A    between atoms: _226  and  _229
REMARK  101  A    between atoms: _229  and  _230
REMARK  102  A    between atoms: _233  and  _235
REMARK  103  A    between atoms: _235  and  _236
REMARK  104  A    between atoms: _235  and  _238
REMARK  105  A    between atoms: _241  and  _243
REMARK  106  A    between atoms: _243  and  _244
REMARK  107  A    between atoms: _243  and  _246
REMARK  108  A    between atoms: _246  and  _247
REMARK  109  A    between atoms: _247  and  _248
REMARK  110  A    between atoms: _248  and  _249
REMARK  111  A    between atoms: _258  and  _260
REMARK  112  A    between atoms: _260  and  _261
REMARK  113  A    between atoms: _260  and  _263
REMARK  114  A    between atoms: _263  and  _264
REMARK  115  A    between atoms: _266  and  _268
REMARK  116  A    between atoms: _268  and  _269
REMARK  117  A    between atoms: _268  and  _271
REMARK  118  A    between atoms: _271  and  _272
REMARK  119  A    between atoms: _275  and  _277
REMARK  120  A    between atoms: _277  and  _278
REMARK  121  A    between atoms: _277  and  _280
REMARK  122  A    between atoms: _280  and  _281
REMARK  123  A    between atoms: _284  and  _286
REMARK  124  A    between atoms: _286  and  _287
REMARK  125  A    between atoms: _286  and  _289
REMARK  126  A    between atoms: _289  and  _290
REMARK  127  A    between atoms: _296  and  _298
REMARK  128  A    between atoms: _298  and  _299
REMARK  129  A    between atoms: _302  and  _304
REMARK  130  A    between atoms: _304  and  _305
REMARK  131  A    between atoms: _304  and  _307
REMARK  132  A    between atoms: _307  and  _308
REMARK  133  A    between atoms: _311  and  _313
REMARK  134  A    between atoms: _313  and  _314
REMARK  135  A    between atoms: _316  and  _318
REMARK  136  A    between atoms: _318  and  _319
REMARK  137  A    between atoms: _318  and  _321
REMARK  138  A    between atoms: _324  and  _326
REMARK  139  A    between atoms: _326  and  _327
REMARK  140  A    between atoms: _326  and  _329
REMARK  141  A    between atoms: _329  and  _330
REMARK  142  A    between atoms: _330  and  _331
REMARK  143  A    between atoms: _334  and  _336
REMARK  144  A    between atoms: _336  and  _337
REMARK  145  A    between atoms: _339  and  _341
REMARK  146  A    between atoms: _341  and  _342
REMARK  147  A    between atoms: _341  and  _344
REMARK  148  A    between atoms: _344  and  _345
REMARK  149  A    between atoms: _345  and  _346
REMARK  150  A    between atoms: _348  and  _350
REMARK  151  A    between atoms: _350  and  _351
REMARK  152  A    between atoms: _350  and  _353
REMARK  153  A    between atoms: _356  and  _358
REMARK  154  A    between atoms: _358  and  _359
REMARK  155  A    between atoms: _358  and  _361
REMARK  156  A    between atoms: _361  and  _362
REMARK  157  A    between atoms: _362  and  _363
REMARK  158  A    between atoms: _366  and  _368
REMARK  159  A    between atoms: _368  and  _369
REMARK  160  A    between atoms: _368  and  _371
REMARK  161  A    between atoms: _371  and  _372
REMARK  162  A    between atoms: _375  and  _377
REMARK  163  A    between atoms: _377  and  _378
REMARK  164  A    between atoms: _377  and  _380
REMARK  165  A    between atoms: _380  and  _381
REMARK  166  A    between atoms: _387  and  _389
REMARK  167  A    between atoms: _389  and  _390
REMARK  168  A    between atoms: _389  and  _392
REMARK  169  A    between atoms: _392  and  _393
REMARK  170  A    between atoms: _396  and  _398
REMARK  171  A    between atoms: _398  and  _399
REMARK  172  A    between atoms: _398  and  _401
REMARK  173  A    between atoms: _401  and  _402
REMARK  174  A    between atoms: _402  and  _403
REMARK  175  A    between atoms: _405  and  _407
REMARK  176  A    between atoms: _407  and  _408
REMARK  177  A    between atoms: _407  and  _410
REMARK  178  A    between atoms: _410  and  _411
REMARK  179  A    between atoms: _413  and  _415
REMARK  180  A    between atoms: _415  and  _416
REMARK  181  A    between atoms: _415  and  _418
REMARK  182  A    between atoms: _418  and  _419
REMARK  183  A    between atoms: _424  and  _426
REMARK  184  A    between atoms: _426  and  _427
REMARK  185  A    between atoms: _426  and  _429
REMARK  186  A    between atoms: _429  and  _430
REMARK  187  A    between atoms: _430  and  _431
REMARK  188  A    between atoms: _431  and  _432
REMARK  189  A    between atoms: _432  and  _433
REMARK  190  A    between atoms: _437  and  _439
REMARK  191  A    between atoms: _439  and  _440
REMARK  192  A    between atoms: _442  and  _444
REMARK  193  A    between atoms: _444  and  _445
REMARK  194  A    between atoms: _444  and  _447
REMARK  195  A    between atoms: _447  and  _448
REMARK  196  A    between atoms: _448  and  _449
REMARK  197  A    between atoms: _451  and  _453
REMARK  198  A    between atoms: _453  and  _454
REMARK  199  A    between atoms: _453  and  _456
REMARK  200  A    between atoms: _456  and  _457
REMARK  201  A    between atoms: _457  and  _458
REMARK  202  A    between atoms: _461  and  _463
REMARK  203  A    between atoms: _463  and  _464
REMARK  204  A    between atoms: _463  and  _466
REMARK  205  A    between atoms: _466  and  _467
REMARK  206  A    between atoms: _472  and  _474
REMARK  207  A    between atoms: _474  and  _475
REMARK  208  A    between atoms: _474  and  _477
REMARK  209  A    between atoms: _477  and  _478
REMARK  210  A    between atoms: _481  and  _483
REMARK  211  A    between atoms: _483  and  _484
REMARK  212  A    between atoms: _483  and  _486
REMARK  213  A    between atoms: _486  and  _487
REMARK  214  A    between atoms: _492  and  _493
REMARK  215  A    between atoms: _495  and  _497
REMARK  216  A    between atoms: _497  and  _498
REMARK  217  A    between atoms: _497  and  _500
REMARK  218  A    between atoms: _500  and  _501
REMARK  219  A    between atoms: _503  and  _505
REMARK  220  A    between atoms: _505  and  _506
REMARK  221  A    between atoms: _505  and  _508
REMARK  222  A    between atoms: _508  and  _509
REMARK  223  A    between atoms: _509  and  _510
REMARK  224  A    between atoms: _512  and  _514
REMARK  225  A    between atoms: _514  and  _515
REMARK  226  A    between atoms: _514  and  _517
REMARK  227  A    between atoms: _517  and  _518
REMARK  228  A    between atoms: _518  and  _519
REMARK  229  A    between atoms: _519  and  _520
REMARK  230  A    between atoms: _520  and  _521
REMARK  231  A    between atoms: _525  and  _527
REMARK  232  A    between atoms: _527  and  _528
REMARK  233  A    between atoms: _527  and  _530
REMARK  234  A    between atoms: _530  and  _531
REMARK  235  A    between atoms: _531  and  _532
REMARK  236  A    between atoms: _532  and  _533
REMARK  237  A    between atoms: _533  and  _534
REMARK  238  A    between atoms: _538  and  _540
REMARK  239  A    between atoms: _540  and  _541
REMARK  240  A    between atoms: _540  and  _543
REMARK  241  A    between atoms: _547  and  _548
REMARK  242  A    between atoms: _553  and  _555
REMARK  243  A    between atoms: _555  and  _556
REMARK  244  A    between atoms: _555  and  _558
REMARK  245  A    between atoms: _558  and  _559
REMARK  246  A    between atoms: _562  and  _564
REMARK  247  A    between atoms: _564  and  _565
REMARK  248  A    between atoms: _564  and  _567
REMARK  249  A    between atoms: _567  and  _568
REMARK  250  A    between atoms: _571  and  _573
REMARK  251  A    between atoms: _573  and  _574
REMARK  252  A    between atoms: _573  and  _576
REMARK  253  A    between atoms: _576  and  _577
REMARK  254  A    between atoms: _580  and  _582
REMARK  255  A    between atoms: _582  and  _583
REMARK  256  A    between atoms: _582  and  _585
REMARK  257  A    between atoms: _585  and  _586
REMARK  258  A    between atoms: _586  and  _587
REMARK                            x       y       z     vdW  Elec       q    Type
REMARK                         _______ _______ _______ _____ _____    ______ ____
ROOT
ATOM      1  C   LEU A   2      22.861  -2.145  33.560  0.00  0.00    +0.241 C 
ATOM      2  N   PHE A   3      24.037  -2.726  33.373  0.00  0.00    -0.297 N 
ATOM      3  H   PHE A   3      24.668  -2.884  34.184  0.00  0.00    +0.150 HD
ATOM      4  O   LEU A   2      22.101  -1.873  32.629  0.00  0.00    -0.273 OA
ENDROOT
BRANCH   1   5
ATOM      5  CA  LEU A   2      22.494  -1.813  35.004  0.00  0.00    +0.149 C 
BRANCH   5   8
ATOM      6  C   LEU A   1      24.433  -0.709  35.971  0.00  0.00    +0.238 C 
ATOM      7  O   LEU A   1      25.027  -1.772  36.130  0.00  0.00    -0.274 OA
ATOM      8  N   LEU A   2      23.222  -0.627  35.437  0.00  0.00    -0.297 N 
ATOM      9  H   LEU A   2      22.780   0.308  35.324  0.00  0.00    +0.150 HD
BRANCH   6  10
ATOM     10  CA  LEU A   1      25.064   0.609  36.396  0.00  0.00    +0.145 C 
BRANCH  10  11
ATOM     11  N   LEU A   1      25.320   0.587  37.828  0.00  0.00    -0.238 NA
ATOM     12  H   LEU A   1      26.032  -0.068  38.209  0.00  0.00    +0.142 HD
ENDBRANCH  10  11
BRANCH  10  13
ATOM     13  CB  LEU A   1      26.370   0.843  35.638  0.00  0.00    +0.026 C 
BRANCH  13  14
ATOM     14  CG  LEU A   1      26.991   2.226  35.891  0.00  0.00    +0.002 C 
ATOM     15  CD2 LEU A   1      26.068   3.307  35.345  0.00  0.00    +0.000 C 
ATOM     16  CD1 LEU A   1      28.360   2.305  35.233  0.00  0.00    +0.000 C 
ENDBRANCH  13  14
ENDBRANCH  10  13
ENDBRANCH   6  10
ENDBRANCH   5   8
BRANCH   5  17
ATOM     17  CB  LEU A   2      20.983  -1.567  35.130  0.00  0.00    +0.029 C 
BRANCH  17  18
ATOM     18  CG  LEU A   2      20.018  -2.734  34.883  0.00  0.00    +0.002 C 
ATOM     19  CD2 LEU A   2      20.283  -3.833  35.891  0.00  0.00    +0.000 C 
ATOM     20  CD1 LEU A   2      18.580  -2.251  35.001  0.00  0.00    +0.000 C 
ENDBRANCH  17  18
ENDBRANCH   5  17
ENDBRANCH   1   5
BRANCH   2  21
ATOM     21  CA  PHE A   3      24.453  -3.145  32.046  0.00  0.00    +0.153 C 
BRANCH  21  22
ATOM     22  C   PHE A   3      23.461  -4.180  31.515  0.00  0.00    +0.241 C 
ATOM     23  N   ALA A   4      22.966  -5.027  32.413  0.00  0.00    -0.298 N 
ATOM     24  H   ALA A   4      23.317  -4.987  33.391  0.00  0.00    +0.150 HD
ATOM     25  O   PHE A   3      23.135  -4.197  30.327  0.00  0.00    -0.273 OA
BRANCH  23  26
ATOM     26  CA  ALA A   4      21.944  -6.012  32.067  0.00  0.00    +0.137 C 
ATOM     27  CB  ALA A   4      22.599  -7.252  31.467  0.00  0.00    +0.030 C 
BRANCH  26  28
ATOM     28  C   ALA A   4      21.196  -6.374  33.353  0.00  0.00    +0.227 C 
ATOM     29  O   ALA A   4      21.711  -6.179  34.452  0.00  0.00    -0.286 OA
ENDBRANCH  26  28
ENDBRANCH  23  26
ENDBRANCH  21  22
BRANCH  21  30
ATOM     30  CB  PHE A   3      25.864  -3.732  32.105  0.00  0.00    +0.055 C 
BRANCH  30  31
ATOM     31  CG  PHE A   3      26.944  -2.691  32.278  0.00  0.00    -0.020 A 
ATOM     32  CD2 PHE A   3      27.461  -2.406  33.529  0.00  0.00    -0.004 A 
ATOM     33  CE2 PHE A   3      28.447  -1.440  33.688  0.00  0.00    -0.000 A 
ATOM     34  CZ  PHE A   3      28.922  -0.750  32.588  0.00  0.00    -0.000 A 
ATOM     35  CE1 PHE A   3      28.414  -1.025  31.334  0.00  0.00    -0.000 A 
ATOM     36  CD1 PHE A   3      27.429  -1.993  31.183  0.00  0.00    -0.004 A 
ENDBRANCH  30  31
ENDBRANCH  21  30
ENDBRANCH   2  21
TORSDOF 14
REMARK  Name = ../refined-set-2016/2ayr/2ayr_pocket.pdb
REMARK  258 active torsions:
REMARK  status: ('A' for Active; 'I' for Inactive)
REMARK    1  A    between atoms: _1  and  _3
REMARK    2  A    between atoms: _3  and  _4
REMARK    3  A    between atoms: _3  and  _6
REMARK    4  A    between atoms: _6  and  _7
REMARK    5  A    between atoms: _10  and  _12
REMARK    6  A    between atoms: _12  and  _13
REMARK    7  A    between atoms: _12  and  _15
REMARK    8  A    between atoms: _15  and  _16
REMARK    9  A    between atoms: _16  and  _17
REMARK   10  A    between atoms: _19  and  _21
REMARK   11  A    between atoms: _21  and  _22
REMARK   12  A    between atoms: _21  and  _24
REMARK   13  A    between atoms: _24  and  _25
REMARK   14  A    between atoms: _25  and  _26
REMARK   15  A    between atoms: _28  and  _30
REMARK   16  A    between atoms: _30  and  _31
REMARK   17  A    between atoms: _33  and  _35
REMARK   18  A    between atoms: _35  and  _36
REMARK   19  A    between atoms: _35  and  _38
REMARK   20  A    between atoms: _38  and  _39
REMARK   21  A    between atoms: _42  and  _44
REMARK   22  A    between atoms: _44  and  _45
REMARK   23  A    between atoms: _44  and  _47
REMARK   24  A    between atoms: _47  and  _48
REMARK   25  A    between atoms: _51  and  _53
REMARK   26  A    between atoms: _53  and  _54
REMARK   27  A    between atoms: _53  and  _56
REMARK   28  A    between atoms: _56  and  _57
REMARK   29  A    between atoms: _60  and  _62
REMARK   30  A    between atoms: _62  and  _63
REMARK   31  A    between atoms: _62  and  _65
REMARK   32  A    between atoms: _65  and  _66
REMARK   33  A    between atoms: _71  and  _73
REMARK   34  A    between atoms: _73  and  _74
REMARK   35  A    between atoms: _73  and  _76
REMARK   36  A    between atoms: _76  and  _77
REMARK   37  A    between atoms: _80  and  _82
REMARK   38  A    between atoms: _82  and  _83
REMARK   39  A    between atoms: _86  and  _88
REMARK   40  A    between atoms: _88  and  _89
REMARK   41  A    between atoms: _88  and  _91
REMARK   42  A    between atoms: _91  and  _92
REMARK   43  A    between atoms: _95  and  _97
REMARK   44  A    between atoms: _97  and  _98
REMARK   45  A    between atoms: _97  and  _100
REMARK   46  A    between atoms: _100  and  _101
REMARK   47  A    between atoms: _101  and  _102
REMARK   48  A    between atoms: _102  and  _103
REMARK   49  A    between atoms: _112  and  _114
REMARK   50  A    between atoms: _114  and  _115
REMARK   51  A    between atoms: _114  and  _117
REMARK   52  A    between atoms: _117  and  _118
REMARK   53  A    between atoms: _118  and  _119
REMARK   54  A    between atoms: _122  and  _124
REMARK   55  A    between atoms: _124  and  _125
REMARK   56  A    between atoms: _124  and  _127
REMARK   57  A    between atoms: _127  and  _128
REMARK   58  A    between atoms: _131  and  _133
REMARK   59  A    between atoms: _133  and  _134
REMARK   60  A    between atoms: _133  and  _136
REMARK   61  A    between atoms: _139  and  _141
REMARK   62  A    between atoms: _141  and  _142
REMARK   63  A    between atoms: _141  and  _144
REMARK   64  A    between atoms: _144  and  _145
REMARK   65  A    between atoms: _145  and  _146
REMARK   66  A    between atoms: _148  and  _150
REMARK   67  A    between atoms: _150  and  _151
REMARK   68  A    between atoms: _150  and  _153
REMARK   69  A    between atoms: _153  and  _154
REMARK   70  A    between atoms: _164  and  _166
REMARK   71  A    between atoms: _166  and  _167
REMARK   72  A    between atoms: _166  and  _169
REMARK   73  A    between atoms: _169  and  _170
REMARK   74  A    between atoms: _173  and  _175
REMARK   75  A    between atoms: _175  and  _176
REMARK   76  A    between atoms: _175  and  _178
REMARK   77  A    between atoms: _178  and  _179
REMARK   78  A    between atoms: _179  and  _180
REMARK   79  A    between atoms: _183  and  _185
REMARK   80  A    between atoms: _185  and  _186
REMARK   81  A    between atoms: _185  and  _188
REMARK   82  A    between atoms: _188  and  _189
REMARK   83  A    between atoms: _192  and  _194
REMARK   84  A    between atoms: _194  and  _195
REMARK   85  A    between atoms: _194  and  _197
REMARK   86  A    between atoms: _197  and  _198
REMARK   87  A    between atoms: _201  and  _203
REMARK   88  A    between atoms: _203  and  _204
REMARK   89  A    between atoms: _203  and  _206
REMARK   90  A    between atoms: _206  and  _207
REMARK   91  A    between atoms: _207  and  _208
REMARK   92  A    between atoms: _210  and  _212
REMARK   93  A    between atoms: _212  and  _213
REMARK   94  A    between atoms: _212  and  _215
REMARK   95  A    between atoms: _215  and  _216
REMARK   96  A    between atoms: _219  and  _221
REMARK   97  A    between atoms: _221  and  _222
REMARK   98  A    between atoms: _224  and  _226
REMARK   99  A    between atoms: _226  and  _227
REMARK  100  A    between atoms: _226  and  _229
REMARK  101  A    between atoms: _229  and  _230
REMARK  102  A    between atoms: _233  and  _235
REMARK  103  A    between atoms: _235  and  _236
REMARK  104  A    between atoms: _235  and  _238
REMARK  105  A    between atoms: _241  and  _243
REMARK  106  A    between atoms: _243  and  _244
REMARK  107  A    between atoms: _243  and  _246
REMARK  108  A    between atoms: _246  and  _247
REMARK  109  A    between atoms: _247  and  _248
REMARK  110  A    between atoms: _248  and  _249
REMARK  111  A    between atoms: _258  and  _260
REMARK  112  A    between atoms: _260  and  _261
REMARK  113  A    between atoms: _260  and  _263
REMARK  114  A    between atoms: _263  and  _264
REMARK  115  A    between atoms: _266  and  _268
REMARK  116  A    between atoms: _268  and  _269
REMARK  117  A    between atoms: _268  and  _271
REMARK  118  A    between atoms: _271  and  _272
REMARK  119  A    between atoms: _275  and  _277
REMARK  120  A    between atoms: _277  and  _278
REMARK  121  A    between atoms: _277  and  _280
REMARK  122  A    between atoms: _280  and  _281
REMARK  123  A    between atoms: _284  and  _286
REMARK  124  A    between atoms: _286  and  _287
REMARK  125  A    between atoms: _286  and  _289
REMARK  126  A    between atoms: _289  and  _290
REMARK  127  A    between atoms: _296  and  _298
REMARK  128  A    between atoms: _298  and  _299
REMARK  129  A    between atoms: _302  and  _304
REMARK  130  A    between atoms: _304  and  _305
REMARK  131  A    between atoms: _304  and  _307
REMARK  132  A    between atoms: _307  and  _308
REMARK  133  A    between atoms: _311  and  _313
REMARK  134  A    between atoms: _313  and  _314
REMARK  135  A    between atoms: _316  and  _318
REMARK  136  A    between atoms: _318  and  _319
REMARK  137  A    between atoms: _318  and  _321
REMARK  138  A    between atoms: _324  and  _326
REMARK  139  A    between atoms: _326  and  _327
REMARK  140  A    between atoms: _326  and  _329
REMARK  141  A    between atoms: _329  and  _330
REMARK  142  A    between atoms: _330  and  _331
REMARK  143  A    between atoms: _334  and  _336
REMARK  144  A    between atoms: _336  and  _337
REMARK  145  A    between atoms: _339  and  _341
REMARK  146  A    between atoms: _341  and  _342
REMARK  147  A    between atoms: _341  and  _344
REMARK  148  A    between atoms: _344  and  _345
REMARK  149  A    between atoms: _345  and  _346
REMARK  150  A    between atoms: _348  and  _350
REMARK  151  A    between atoms: _350  and  _351
REMARK  152  A    between atoms: _350  and  _353
REMARK  153  A    between atoms: _356  and  _358
REMARK  154  A    between atoms: _358  and  _359
REMARK  155  A    between atoms: _358  and  _361
REMARK  156  A    between atoms: _361  and  _362
REMARK  157  A    between atoms: _362  and  _363
REMARK  158  A    between atoms: _366  and  _368
REMARK  159  A    between atoms: _368  and  _369
REMARK  160  A    between atoms: _368  and  _371
REMARK  161  A    between atoms: _371  and  _372
REMARK  162  A    between atoms: _375  and  _377
REMARK  163  A    between atoms: _377  and  _378
REMARK  164  A    between atoms: _377  and  _380
REMARK  165  A    between atoms: _380  and  _381
REMARK  166  A    between atoms: _387  and  _389
REMARK  167  A    between atoms: _389  and  _390
REMARK  168  A    between atoms: _389  and  _392
REMARK  169  A    between atoms: _392  and  _393
REMARK  170  A    between atoms: _396  and  _398
REMARK  171  A    between atoms: _398  and  _399
REMARK  172  A    between atoms: _398  and  _401
REMARK  173  A    between atoms: _401  and  _402
REMARK  174  A    between atoms: _402  and  _403
REMARK  175  A    between atoms: _405  and  _407
REMARK  176  A    between atoms: _407  and  _408
REMARK  177  A    between atoms: _407  and  _410
REMARK  178  A    between atoms: _410  and  _411
REMARK  179  A    between atoms: _413  and  _415
REMARK  180  A    between atoms: _415  and  _416
REMARK  181  A    between atoms: _415  and  _418
REMARK  182  A    between atoms: _418  and  _419
REMARK  183  A    between atoms: _424  and  _426
REMARK  184  A    between atoms: _426  and  _427
REMARK  185  A    between atoms: _426  and  _429
REMARK  186  A    between atoms: _429  and  _430
REMARK  187  A    between atoms: _430  and  _431
REMARK  188  A    between atoms: _431  and  _432
REMARK  189  A    between atoms: _432  and  _433
REMARK  190  A    between atoms: _437  and  _439
REMARK  191  A    between atoms: _439  and  _440
REMARK  192  A    between atoms: _442  and  _444
REMARK  193  A    between atoms: _444  and  _445
REMARK  194  A    between atoms: _444  and  _447
REMARK  195  A    between atoms: _447  and  _448
REMARK  196  A    between atoms: _448  and  _449
REMARK  197  A    between atoms: _451  and  _453
REMARK  198  A    between atoms: _453  and  _454
REMARK  199  A    between atoms: _453  and  _456
REMARK  200  A    between atoms: _456  and  _457
REMARK  201  A    between atoms: _457  and  _458
REMARK  202  A    between atoms: _461  and  _463
REMARK  203  A    between atoms: _463  and  _464
REMARK  204  A    between atoms: _463  and  _466
REMARK  205  A    between atoms: _466  and  _467
REMARK  206  A    between atoms: _472  and  _474
REMARK  207  A    between atoms: _474  and  _475
REMARK  208  A    between atoms: _474  and  _477
REMARK  209  A    between atoms: _477  and  _478
REMARK  210  A    between atoms: _481  and  _483
REMARK  211  A    between atoms: _483  and  _484
REMARK  212  A    between atoms: _483  and  _486
REMARK  213  A    between atoms: _486  and  _487
REMARK  214  A    between atoms: _492  and  _493
REMARK  215  A    between atoms: _495  and  _497
REMARK  216  A    between atoms: _497  and  _498
REMARK  217  A    between atoms: _497  and  _500
REMARK  218  A    between atoms: _500  and  _501
REMARK  219  A    between atoms: _503  and  _505
REMARK  220  A    between atoms: _505  and  _506
REMARK  221  A    between atoms: _505  and  _508
REMARK  222  A    between atoms: _508  and  _509
REMARK  223  A    between atoms: _509  and  _510
REMARK  224  A    between atoms: _512  and  _514
REMARK  225  A    between atoms: _514  and  _515
REMARK  226  A    between atoms: _514  and  _517
REMARK  227  A    between atoms: _517  and  _518
REMARK  228  A    between atoms: _518  and  _519
REMARK  229  A    between atoms: _519  and  _520
REMARK  230  A    between atoms: _520  and  _521
REMARK  231  A    between atoms: _525  and  _527
REMARK  232  A    between atoms: _527  and  _528
REMARK  233  A    between atoms: _527  and  _530
REMARK  234  A    between atoms: _530  and  _531
REMARK  235  A    between atoms: _531  and  _532
REMARK  236  A    between atoms: _532  and  _533
REMARK  237  A    between atoms: _533  and  _534
REMARK  238  A    between atoms: _538  and  _540
REMARK  239  A    between atoms: _540  and  _541
REMARK  240  A    between atoms: _540  and  _543
REMARK  241  A    between atoms: _547  and  _548
REMARK  242  A    between atoms: _553  and  _555
REMARK  243  A    between atoms: _555  and  _556
REMARK  244  A    between atoms: _555  and  _558
REMARK  245  A    between atoms: _558  and  _559
REMARK  246  A    between atoms: _562  and  _564
REMARK  247  A    between atoms: _564  and  _565
REMARK  248  A    between atoms: _564  and  _567
REMARK  249  A    between atoms: _567  and  _568
REMARK  250  A    between atoms: _571  and  _573
REMARK  251  A    between atoms: _573  and  _574
REMARK  252  A    between atoms: _573  and  _576
REMARK  253  A    between atoms: _576  and  _577
REMARK  254  A    between atoms: _580  and  _582
REMARK  255  A    between atoms: _582  and  _583
REMARK  256  A    between atoms: _582  and  _585
REMARK  257  A    between atoms: _585  and  _586
REMARK  258  A    between atoms: _586  and  _587
REMARK                            x       y       z     vdW  Elec       q    Type
REMARK                         _______ _______ _______ _____ _____    ______ ____
ROOT
ATOM      1  CA  LEU A   1      24.677  -7.675  35.599  0.00  0.00    +0.133 C 
ENDROOT
BRANCH   1   2
ATOM      2  N   LEU A   1      23.331  -8.203  35.470  0.00  0.00    -0.239 NA
ATOM      3  H   LEU A   1      22.561  -7.576  35.162  0.00  0.00    +0.142 HD
ENDBRANCH   1   2
BRANCH   1   4
ATOM      4  C   LEU A   1      24.580  -6.221  36.041  0.00  0.00    +0.224 C 
ATOM      5  O   LEU A   1      24.690  -5.303  35.222  0.00  0.00    -0.287 OA
ENDBRANCH   1   4
BRANCH   1   6
ATOM      6  CB  LEU A   1      25.412  -7.776  34.260  0.00  0.00    +0.025 C 
BRANCH   6   7
ATOM      7  CG  LEU A   1      26.931  -7.585  34.271  0.00  0.00    +0.002 C 
ATOM      8  CD2 LEU A   1      27.597  -8.691  35.082  0.00  0.00    +0.000 C 
ATOM      9  CD1 LEU A   1      27.448  -7.598  32.845  0.00  0.00    +0.000 C 
ENDBRANCH   6   7
ENDBRANCH   1   6
TORSDOF 4
REMARK  Name = ../refined-set-2016/2ayr/2ayr_pocket.pdb
REMARK  258 active torsions:
REMARK  status: ('A' for Active; 'I' for Inactive)
REMARK    1  A    between atoms: _1  and  _3
REMARK    2  A    between atoms: _3  and  _4
REMARK    3  A    between atoms: _3  and  _6
REMARK    4  A    between atoms: _6  and  _7
REMARK    5  A    between atoms: _10  and  _12
REMARK    6  A    between atoms: _12  and  _13
REMARK    7  A    between atoms: _12  and  _15
REMARK    8  A    between atoms: _15  and  _16
REMARK    9  A    between atoms: _16  and  _17
REMARK   10  A    between atoms: _19  and  _21
REMARK   11  A    between atoms: _21  and  _22
REMARK   12  A    between atoms: _21  and  _24
REMARK   13  A    between atoms: _24  and  _25
REMARK   14  A    between atoms: _25  and  _26
REMARK   15  A    between atoms: _28  and  _30
REMARK   16  A    between atoms: _30  and  _31
REMARK   17  A    between atoms: _33  and  _35
REMARK   18  A    between atoms: _35  and  _36
REMARK   19  A    between atoms: _35  and  _38
REMARK   20  A    between atoms: _38  and  _39
REMARK   21  A    between atoms: _42  and  _44
REMARK   22  A    between atoms: _44  and  _45
REMARK   23  A    between atoms: _44  and  _47
REMARK   24  A    between atoms: _47  and  _48
REMARK   25  A    between atoms: _51  and  _53
REMARK   26  A    between atoms: _53  and  _54
REMARK   27  A    between atoms: _53  and  _56
REMARK   28  A    between atoms: _56  and  _57
REMARK   29  A    between atoms: _60  and  _62
REMARK   30  A    between atoms: _62  and  _63
REMARK   31  A    between atoms: _62  and  _65
REMARK   32  A    between atoms: _65  and  _66
REMARK   33  A    between atoms: _71  and  _73
REMARK   34  A    between atoms: _73  and  _74
REMARK   35  A    between atoms: _73  and  _76
REMARK   36  A    between atoms: _76  and  _77
REMARK   37  A    between atoms: _80  and  _82
REMARK   38  A    between atoms: _82  and  _83
REMARK   39  A    between atoms: _86  and  _88
REMARK   40  A    between atoms: _88  and  _89
REMARK   41  A    between atoms: _88  and  _91
REMARK   42  A    between atoms: _91  and  _92
REMARK   43  A    between atoms: _95  and  _97
REMARK   44  A    between atoms: _97  and  _98
REMARK   45  A    between atoms: _97  and  _100
REMARK   46  A    between atoms: _100  and  _101
REMARK   47  A    between atoms: _101  and  _102
REMARK   48  A    between atoms: _102  and  _103
REMARK   49  A    between atoms: _112  and  _114
REMARK   50  A    between atoms: _114  and  _115
REMARK   51  A    between atoms: _114  and  _117
REMARK   52  A    between atoms: _117  and  _118
REMARK   53  A    between atoms: _118  and  _119
REMARK   54  A    between atoms: _122  and  _124
REMARK   55  A    between atoms: _124  and  _125
REMARK   56  A    between atoms: _124  and  _127
REMARK   57  A    between atoms: _127  and  _128
REMARK   58  A    between atoms: _131  and  _133
REMARK   59  A    between atoms: _133  and  _134
REMARK   60  A    between atoms: _133  and  _136
REMARK   61  A    between atoms: _139  and  _141
REMARK   62  A    between atoms: _141  and  _142
REMARK   63  A    between atoms: _141  and  _144
REMARK   64  A    between atoms: _144  and  _145
REMARK   65  A    between atoms: _145  and  _146
REMARK   66  A    between atoms: _148  and  _150
REMARK   67  A    between atoms: _150  and  _151
REMARK   68  A    between atoms: _150  and  _153
REMARK   69  A    between atoms: _153  and  _154
REMARK   70  A    between atoms: _164  and  _166
REMARK   71  A    between atoms: _166  and  _167
REMARK   72  A    between atoms: _166  and  _169
REMARK   73  A    between atoms: _169  and  _170
REMARK   74  A    between atoms: _173  and  _175
REMARK   75  A    between atoms: _175  and  _176
REMARK   76  A    between atoms: _175  and  _178
REMARK   77  A    between atoms: _178  and  _179
REMARK   78  A    between atoms: _179  and  _180
REMARK   79  A    between atoms: _183  and  _185
REMARK   80  A    between atoms: _185  and  _186
REMARK   81  A    between atoms: _185  and  _188
REMARK   82  A    between atoms: _188  and  _189
REMARK   83  A    between atoms: _192  and  _194
REMARK   84  A    between atoms: _194  and  _195
REMARK   85  A    between atoms: _194  and  _197
REMARK   86  A    between atoms: _197  and  _198
REMARK   87  A    between atoms: _201  and  _203
REMARK   88  A    between atoms: _203  and  _204
REMARK   89  A    between atoms: _203  and  _206
REMARK   90  A    between atoms: _206  and  _207
REMARK   91  A    between atoms: _207  and  _208
REMARK   92  A    between atoms: _210  and  _212
REMARK   93  A    between atoms: _212  and  _213
REMARK   94  A    between atoms: _212  and  _215
REMARK   95  A    between atoms: _215  and  _216
REMARK   96  A    between atoms: _219  and  _221
REMARK   97  A    between atoms: _221  and  _222
REMARK   98  A    between atoms: _224  and  _226
REMARK   99  A    between atoms: _226  and  _227
REMARK  100  A    between atoms: _226  and  _229
REMARK  101  A    between atoms: _229  and  _230
REMARK  102  A    between atoms: _233  and  _235
REMARK  103  A    between atoms: _235  and  _236
REMARK  104  A    between atoms: _235  and  _238
REMARK  105  A    between atoms: _241  and  _243
REMARK  106  A    between atoms: _243  and  _244
REMARK  107  A    between atoms: _243  and  _246
REMARK  108  A    between atoms: _246  and  _247
REMARK  109  A    between atoms: _247  and  _248
REMARK  110  A    between atoms: _248  and  _249
REMARK  111  A    between atoms: _258  and  _260
REMARK  112  A    between atoms: _260  and  _261
REMARK  113  A    between atoms: _260  and  _263
REMARK  114  A    between atoms: _263  and  _264
REMARK  115  A    between atoms: _266  and  _268
REMARK  116  A    between atoms: _268  and  _269
REMARK  117  A    between atoms: _268  and  _271
REMARK  118  A    between atoms: _271  and  _272
REMARK  119  A    between atoms: _275  and  _277
REMARK  120  A    between atoms: _277  and  _278
REMARK  121  A    between atoms: _277  and  _280
REMARK  122  A    between atoms: _280  and  _281
REMARK  123  A    between atoms: _284  and  _286
REMARK  124  A    between atoms: _286  and  _287
REMARK  125  A    between atoms: _286  and  _289
REMARK  126  A    between atoms: _289  and  _290
REMARK  127  A    between atoms: _296  and  _298
REMARK  128  A    between atoms: _298  and  _299
REMARK  129  A    between atoms: _302  and  _304
REMARK  130  A    between atoms: _304  and  _305
REMARK  131  A    between atoms: _304  and  _307
REMARK  132  A    between atoms: _307  and  _308
REMARK  133  A    between atoms: _311  and  _313
REMARK  134  A    between atoms: _313  and  _314
REMARK  135  A    between atoms: _316  and  _318
REMARK  136  A    between atoms: _318  and  _319
REMARK  137  A    between atoms: _318  and  _321
REMARK  138  A    between atoms: _324  and  _326
REMARK  139  A    between atoms: _326  and  _327
REMARK  140  A    between atoms: _326  and  _329
REMARK  141  A    between atoms: _329  and  _330
REMARK  142  A    between atoms: _330  and  _331
REMARK  143  A    between atoms: _334  and  _336
REMARK  144  A    between atoms: _336  and  _337
REMARK  145  A    between atoms: _339  and  _341
REMARK  146  A    between atoms: _341  and  _342
REMARK  147  A    between atoms: _341  and  _344
REMARK  148  A    between atoms: _344  and  _345
REMARK  149  A    between atoms: _345  and  _346
REMARK  150  A    between atoms: _348  and  _350
REMARK  151  A    between atoms: _350  and  _351
REMARK  152  A    between atoms: _350  and  _353
REMARK  153  A    between atoms: _356  and  _358
REMARK  154  A    between atoms: _358  and  _359
REMARK  155  A    between atoms: _358  and  _361
REMARK  156  A    between atoms: _361  and  _362
REMARK  157  A    between atoms: _362  and  _363
REMARK  158  A    between atoms: _366  and  _368
REMARK  159  A    between atoms: _368  and  _369
REMARK  160  A    between atoms: _368  and  _371
REMARK  161  A    between atoms: _371  and  _372
REMARK  162  A    between atoms: _375  and  _377
REMARK  163  A    between atoms: _377  and  _378
REMARK  164  A    between atoms: _377  and  _380
REMARK  165  A    between atoms: _380  and  _381
REMARK  166  A    between atoms: _387  and  _389
REMARK  167  A    between atoms: _389  and  _390
REMARK  168  A    between atoms: _389  and  _392
REMARK  169  A    between atoms: _392  and  _393
REMARK  170  A    between atoms: _396  and  _398
REMARK  171  A    between atoms: _398  and  _399
REMARK  172  A    between atoms: _398  and  _401
REMARK  173  A    between atoms: _401  and  _402
REMARK  174  A    between atoms: _402  and  _403
REMARK  175  A    between atoms: _405  and  _407
REMARK  176  A    between atoms: _407  and  _408
REMARK  177  A    between atoms: _407  and  _410
REMARK  178  A    between atoms: _410  and  _411
REMARK  179  A    between atoms: _413  and  _415
REMARK  180  A    between atoms: _415  and  _416
REMARK  181  A    between atoms: _415  and  _418
REMARK  182  A    between atoms: _418  and  _419
REMARK  183  A    between atoms: _424  and  _426
REMARK  184  A    between atoms: _426  and  _427
REMARK  185  A    between atoms: _426  and  _429
REMARK  186  A    between atoms: _429  and  _430
REMARK  187  A    between atoms: _430  and  _431
REMARK  188  A    between atoms: _431  and  _432
REMARK  189  A    between atoms: _432  and  _433
REMARK  190  A    between atoms: _437  and  _439
REMARK  191  A    between atoms: _439  and  _440
REMARK  192  A    between atoms: _442  and  _444
REMARK  193  A    between atoms: _444  and  _445
REMARK  194  A    between atoms: _444  and  _447
REMARK  195  A    between atoms: _447  and  _448
REMARK  196  A    between atoms: _448  and  _449
REMARK  197  A    between atoms: _451  and  _453
REMARK  198  A    between atoms: _453  and  _454
REMARK  199  A    between atoms: _453  and  _456
REMARK  200  A    between atoms: _456  and  _457
REMARK  201  A    between atoms: _457  and  _458
REMARK  202  A    between atoms: _461  and  _463
REMARK  203  A    between atoms: _463  and  _464
REMARK  204  A    between atoms: _463  and  _466
REMARK  205  A    between atoms: _466  and  _467
REMARK  206  A    between atoms: _472  and  _474
REMARK  207  A    between atoms: _474  and  _475
REMARK  208  A    between atoms: _474  and  _477
REMARK  209  A    between atoms: _477  and  _478
REMARK  210  A    between atoms: _481  and  _483
REMARK  211  A    between atoms: _483  and  _484
REMARK  212  A    between atoms: _483  and  _486
REMARK  213  A    between atoms: _486  and  _487
REMARK  214  A    between atoms: _492  and  _493
REMARK  215  A    between atoms: _495  and  _497
REMARK  216  A    between atoms: _497  and  _498
REMARK  217  A    between atoms: _497  and  _500
REMARK  218  A    between atoms: _500  and  _501
REMARK  219  A    between atoms: _503  and  _505
REMARK  220  A    between atoms: _505  and  _506
REMARK  221  A    between atoms: _505  and  _508
REMARK  222  A    between atoms: _508  and  _509
REMARK  223  A    between atoms: _509  and  _510
REMARK  224  A    between atoms: _512  and  _514
REMARK  225  A    between atoms: _514  and  _515
REMARK  226  A    between atoms: _514  and  _517
REMARK  227  A    between atoms: _517  and  _518
REMARK  228  A    between atoms: _518  and  _519
REMARK  229  A    between atoms: _519  and  _520
REMARK  230  A    between atoms: _520  and  _521
REMARK  231  A    between atoms: _525  and  _527
REMARK  232  A    between atoms: _527  and  _528
REMARK  233  A    between atoms: _527  and  _530
REMARK  234  A    between atoms: _530  and  _531
REMARK  235  A    between atoms: _531  and  _532
REMARK  236  A    between atoms: _532  and  _533
REMARK  237  A    between atoms: _533  and  _534
REMARK  238  A    between atoms: _538  and  _540
REMARK  239  A    between atoms: _540  and  _541
REMARK  240  A    between atoms: _540  and  _543
REMARK  241  A    between atoms: _547  and  _548
REMARK  242  A    between atoms: _553  and  _555
REMARK  243  A    between atoms: _555  and  _556
REMARK  244  A    between atoms: _555  and  _558
REMARK  245  A    between atoms: _558  and  _559
REMARK  246  A    between atoms: _562  and  _564
REMARK  247  A    between atoms: _564  and  _565
REMARK  248  A    between atoms: _564  and  _567
REMARK  249  A    between atoms: _567  and  _568
REMARK  250  A    between atoms: _571  and  _573
REMARK  251  A    between atoms: _573  and  _574
REMARK  252  A    between atoms: _573  and  _576
REMARK  253  A    between atoms: _576  and  _577
REMARK  254  A    between atoms: _580  and  _582
REMARK  255  A    between atoms: _582  and  _583
REMARK  256  A    between atoms: _582  and  _585
REMARK  257  A    between atoms: _585  and  _586
REMARK  258  A    between atoms: _586  and  _587
REMARK                            x       y       z     vdW  Elec       q    Type
REMARK                         _______ _______ _______ _____ _____    ______ ____
ROOT
ATOM      1  CA  GLY A   1      35.268  -1.316  37.253  0.00  0.00    +0.156 C 
ENDROOT
BRANCH   1   2
ATOM      2  N   GLY A   1      34.683  -1.711  38.522  0.00  0.00    -0.238 NA
ATOM      3  H   GLY A   1      34.667  -1.039  39.316  0.00  0.00    +0.142 HD
ENDBRANCH   1   2
BRANCH   1   4
ATOM      4  C   GLY A   1      36.783  -1.256  37.344  0.00  0.00    +0.226 C 
ATOM      5  O   GLY A   1      37.470  -0.978  36.361  0.00  0.00    -0.287 OA
ENDBRANCH   1   4
TORSDOF 2
REMARK  Name = ../refined-set-2016/2ayr/2ayr_pocket.pdb
REMARK  258 active torsions:
REMARK  status: ('A' for Active; 'I' for Inactive)
REMARK    1  A    between atoms: _1  and  _3
REMARK    2  A    between atoms: _3  and  _4
REMARK    3  A    between atoms: _3  and  _6
REMARK    4  A    between atoms: _6  and  _7
REMARK    5  A    between atoms: _10  and  _12
REMARK    6  A    between atoms: _12  and  _13
REMARK    7  A    between atoms: _12  and  _15
REMARK    8  A    between atoms: _15  and  _16
REMARK    9  A    between atoms: _16  and  _17
REMARK   10  A    between atoms: _19  and  _21
REMARK   11  A    between atoms: _21  and  _22
REMARK   12  A    between atoms: _21  and  _24
REMARK   13  A    between atoms: _24  and  _25
REMARK   14  A    between atoms: _25  and  _26
REMARK   15  A    between atoms: _28  and  _30
REMARK   16  A    between atoms: _30  and  _31
REMARK   17  A    between atoms: _33  and  _35
REMARK   18  A    between atoms: _35  and  _36
REMARK   19  A    between atoms: _35  and  _38
REMARK   20  A    between atoms: _38  and  _39
REMARK   21  A    between atoms: _42  and  _44
REMARK   22  A    between atoms: _44  and  _45
REMARK   23  A    between atoms: _44  and  _47
REMARK   24  A    between atoms: _47  and  _48
REMARK   25  A    between atoms: _51  and  _53
REMARK   26  A    between atoms: _53  and  _54
REMARK   27  A    between atoms: _53  and  _56
REMARK   28  A    between atoms: _56  and  _57
REMARK   29  A    between atoms: _60  and  _62
REMARK   30  A    between atoms: _62  and  _63
REMARK   31  A    between atoms: _62  and  _65
REMARK   32  A    between atoms: _65  and  _66
REMARK   33  A    between atoms: _71  and  _73
REMARK   34  A    between atoms: _73  and  _74
REMARK   35  A    between atoms: _73  and  _76
REMARK   36  A    between atoms: _76  and  _77
REMARK   37  A    between atoms: _80  and  _82
REMARK   38  A    between atoms: _82  and  _83
REMARK   39  A    between atoms: _86  and  _88
REMARK   40  A    between atoms: _88  and  _89
REMARK   41  A    between atoms: _88  and  _91
REMARK   42  A    between atoms: _91  and  _92
REMARK   43  A    between atoms: _95  and  _97
REMARK   44  A    between atoms: _97  and  _98
REMARK   45  A    between atoms: _97  and  _100
REMARK   46  A    between atoms: _100  and  _101
REMARK   47  A    between atoms: _101  and  _102
REMARK   48  A    between atoms: _102  and  _103
REMARK   49  A    between atoms: _112  and  _114
REMARK   50  A    between atoms: _114  and  _115
REMARK   51  A    between atoms: _114  and  _117
REMARK   52  A    between atoms: _117  and  _118
REMARK   53  A    between atoms: _118  and  _119
REMARK   54  A    between atoms: _122  and  _124
REMARK   55  A    between atoms: _124  and  _125
REMARK   56  A    between atoms: _124  and  _127
REMARK   57  A    between atoms: _127  and  _128
REMARK   58  A    between atoms: _131  and  _133
REMARK   59  A    between atoms: _133  and  _134
REMARK   60  A    between atoms: _133  and  _136
REMARK   61  A    between atoms: _139  and  _141
REMARK   62  A    between atoms: _141  and  _142
REMARK   63  A    between atoms: _141  and  _144
REMARK   64  A    between atoms: _144  and  _145
REMARK   65  A    between atoms: _145  and  _146
REMARK   66  A    between atoms: _148  and  _150
REMARK   67  A    between atoms: _150  and  _151
REMARK   68  A    between atoms: _150  and  _153
REMARK   69  A    between atoms: _153  and  _154
REMARK   70  A    between atoms: _164  and  _166
REMARK   71  A    between atoms: _166  and  _167
REMARK   72  A    between atoms: _166  and  _169
REMARK   73  A    between atoms: _169  and  _170
REMARK   74  A    between atoms: _173  and  _175
REMARK   75  A    between atoms: _175  and  _176
REMARK   76  A    between atoms: _175  and  _178
REMARK   77  A    between atoms: _178  and  _179
REMARK   78  A    between atoms: _179  and  _180
REMARK   79  A    between atoms: _183  and  _185
REMARK   80  A    between atoms: _185  and  _186
REMARK   81  A    between atoms: _185  and  _188
REMARK   82  A    between atoms: _188  and  _189
REMARK   83  A    between atoms: _192  and  _194
REMARK   84  A    between atoms: _194  and  _195
REMARK   85  A    between atoms: _194  and  _197
REMARK   86  A    between atoms: _197  and  _198
REMARK   87  A    between atoms: _201  and  _203
REMARK   88  A    between atoms: _203  and  _204
REMARK   89  A    between atoms: _203  and  _206
REMARK   90  A    between atoms: _206  and  _207
REMARK   91  A    between atoms: _207  and  _208
REMARK   92  A    between atoms: _210  and  _212
REMARK   93  A    between atoms: _212  and  _213
REMARK   94  A    between atoms: _212  and  _215
REMARK   95  A    between atoms: _215  and  _216
REMARK   96  A    between atoms: _219  and  _221
REMARK   97  A    between atoms: _221  and  _222
REMARK   98  A    between atoms: _224  and  _226
REMARK   99  A    between atoms: _226  and  _227
REMARK  100  A    between atoms: _226  and  _229
REMARK  101  A    between atoms: _229  and  _230
REMARK  102  A    between atoms: _233  and  _235
REMARK  103  A    between atoms: _235  and  _236
REMARK  104  A    between atoms: _235  and  _238
REMARK  105  A    between atoms: _241  and  _243
REMARK  106  A    between atoms: _243  and  _244
REMARK  107  A    between atoms: _243  and  _246
REMARK  108  A    between atoms: _246  and  _247
REMARK  109  A    between atoms: _247  and  _248
REMARK  110  A    between atoms: _248  and  _249
REMARK  111  A    between atoms: _258  and  _260
REMARK  112  A    between atoms: _260  and  _261
REMARK  113  A    between atoms: _260  and  _263
REMARK  114  A    between atoms: _263  and  _264
REMARK  115  A    between atoms: _266  and  _268
REMARK  116  A    between atoms: _268  and  _269
REMARK  117  A    between atoms: _268  and  _271
REMARK  118  A    between atoms: _271  and  _272
REMARK  119  A    between atoms: _275  and  _277
REMARK  120  A    between atoms: _277  and  _278
REMARK  121  A    between atoms: _277  and  _280
REMARK  122  A    between atoms: _280  and  _281
REMARK  123  A    between atoms: _284  and  _286
REMARK  124  A    between atoms: _286  and  _287
REMARK  125  A    between atoms: _286  and  _289
REMARK  126  A    between atoms: _289  and  _290
REMARK  127  A    between atoms: _296  and  _298
REMARK  128  A    between atoms: _298  and  _299
REMARK  129  A    between atoms: _302  and  _304
REMARK  130  A    between atoms: _304  and  _305
REMARK  131  A    between atoms: _304  and  _307
REMARK  132  A    between atoms: _307  and  _308
REMARK  133  A    between atoms: _311  and  _313
REMARK  134  A    between atoms: _313  and  _314
REMARK  135  A    between atoms: _316  and  _318
REMARK  136  A    between atoms: _318  and  _319
REMARK  137  A    between atoms: _318  and  _321
REMARK  138  A    between atoms: _324  and  _326
REMARK  139  A    between atoms: _326  and  _327
REMARK  140  A    between atoms: _326  and  _329
REMARK  141  A    between atoms: _329  and  _330
REMARK  142  A    between atoms: _330  and  _331
REMARK  143  A    between atoms: _334  and  _336
REMARK  144  A    between atoms: _336  and  _337
REMARK  145  A    between atoms: _339  and  _341
REMARK  146  A    between atoms: _341  and  _342
REMARK  147  A    between atoms: _341  and  _344
REMARK  148  A    between atoms: _344  and  _345
REMARK  149  A    between atoms: _345  and  _346
REMARK  150  A    between atoms: _348  and  _350
REMARK  151  A    between atoms: _350  and  _351
REMARK  152  A    between atoms: _350  and  _353
REMARK  153  A    between atoms: _356  and  _358
REMARK  154  A    between atoms: _358  and  _359
REMARK  155  A    between atoms: _358  and  _361
REMARK  156  A    between atoms: _361  and  _362
REMARK  157  A    between atoms: _362  and  _363
REMARK  158  A    between atoms: _366  and  _368
REMARK  159  A    between atoms: _368  and  _369
REMARK  160  A    between atoms: _368  and  _371
REMARK  161  A    between atoms: _371  and  _372
REMARK  162  A    between atoms: _375  and  _377
REMARK  163  A    between atoms: _377  and  _378
REMARK  164  A    between atoms: _377  and  _380
REMARK  165  A    between atoms: _380  and  _381
REMARK  166  A    between atoms: _387  and  _389
REMARK  167  A    between atoms: _389  and  _390
REMARK  168  A    between atoms: _389  and  _392
REMARK  169  A    between atoms: _392  and  _393
REMARK  170  A    between atoms: _396  and  _398
REMARK  171  A    between atoms: _398  and  _399
REMARK  172  A    between atoms: _398  and  _401
REMARK  173  A    between atoms: _401  and  _402
REMARK  174  A    between atoms: _402  and  _403
REMARK  175  A    between atoms: _405  and  _407
REMARK  176  A    between atoms: _407  and  _408
REMARK  177  A    between atoms: _407  and  _410
REMARK  178  A    between atoms: _410  and  _411
REMARK  179  A    between atoms: _413  and  _415
REMARK  180  A    between atoms: _415  and  _416
REMARK  181  A    between atoms: _415  and  _418
REMARK  182  A    between atoms: _418  and  _419
REMARK  183  A    between atoms: _424  and  _426
REMARK  184  A    between atoms: _426  and  _427
REMARK  185  A    between atoms: _426  and  _429
REMARK  186  A    between atoms: _429  and  _430
REMARK  187  A    between atoms: _430  and  _431
REMARK  188  A    between atoms: _431  and  _432
REMARK  189  A    between atoms: _432  and  _433
REMARK  190  A    between atoms: _437  and  _439
REMARK  191  A    between atoms: _439  and  _440
REMARK  192  A    between atoms: _442  and  _444
REMARK  193  A    between atoms: _444  and  _445
REMARK  194  A    between atoms: _444  and  _447
REMARK  195  A    between atoms: _447  and  _448
REMARK  196  A    between atoms: _448  and  _449
REMARK  197  A    between atoms: _451  and  _453
REMARK  198  A    between atoms: _453  and  _454
REMARK  199  A    between atoms: _453  and  _456
REMARK  200  A    between atoms: _456  and  _457
REMARK  201  A    between atoms: _457  and  _458
REMARK  202  A    between atoms: _461  and  _463
REMARK  203  A    between atoms: _463  and  _464
REMARK  204  A    between atoms: _463  and  _466
REMARK  205  A    between atoms: _466  and  _467
REMARK  206  A    between atoms: _472  and  _474
REMARK  207  A    between atoms: _474  and  _475
REMARK  208  A    between atoms: _474  and  _477
REMARK  209  A    between atoms: _477  and  _478
REMARK  210  A    between atoms: _481  and  _483
REMARK  211  A    between atoms: _483  and  _484
REMARK  212  A    between atoms: _483  and  _486
REMARK  213  A    between atoms: _486  and  _487
REMARK  214  A    between atoms: _492  and  _493
REMARK  215  A    between atoms: _495  and  _497
REMARK  216  A    between atoms: _497  and  _498
REMARK  217  A    between atoms: _497  and  _500
REMARK  218  A    between atoms: _500  and  _501
REMARK  219  A    between atoms: _503  and  _505
REMARK  220  A    between atoms: _505  and  _506
REMARK  221  A    between atoms: _505  and  _508
REMARK  222  A    between atoms: _508  and  _509
REMARK  223  A    between atoms: _509  and  _510
REMARK  224  A    between atoms: _512  and  _514
REMARK  225  A    between atoms: _514  and  _515
REMARK  226  A    between atoms: _514  and  _517
REMARK  227  A    between atoms: _517  and  _518
REMARK  228  A    between atoms: _518  and  _519
REMARK  229  A    between atoms: _519  and  _520
REMARK  230  A    between atoms: _520  and  _521
REMARK  231  A    between atoms: _525  and  _527
REMARK  232  A    between atoms: _527  and  _528
REMARK  233  A    between atoms: _527  and  _530
REMARK  234  A    between atoms: _530  and  _531
REMARK  235  A    between atoms: _531  and  _532
REMARK  236  A    between atoms: _532  and  _533
REMARK  237  A    between atoms: _533  and  _534
REMARK  238  A    between atoms: _538  and  _540
REMARK  239  A    between atoms: _540  and  _541
REMARK  240  A    between atoms: _540  and  _543
REMARK  241  A    between atoms: _547  and  _548
REMARK  242  A    between atoms: _553  and  _555
REMARK  243  A    between atoms: _555  and  _556
REMARK  244  A    between atoms: _555  and  _558
REMARK  245  A    between atoms: _558  and  _559
REMARK  246  A    between atoms: _562  and  _564
REMARK  247  A    between atoms: _564  and  _565
REMARK  248  A    between atoms: _564  and  _567
REMARK  249  A    between atoms: _567  and  _568
REMARK  250  A    between atoms: _571  and  _573
REMARK  251  A    between atoms: _573  and  _574
REMARK  252  A    between atoms: _573  and  _576
REMARK  253  A    between atoms: _576  and  _577
REMARK  254  A    between atoms: _580  and  _582
REMARK  255  A    between atoms: _582  and  _583
REMARK  256  A    between atoms: _582  and  _585
REMARK  257  A    between atoms: _585  and  _586
REMARK  258  A    between atoms: _586  and  _587
REMARK                            x       y       z     vdW  Elec       q    Type
REMARK                         _______ _______ _______ _____ _____    ______ ____
ROOT
ATOM      1  CA  VAL A   5      36.406   3.263  36.943  0.00  0.00    +0.149 C 
ENDROOT
BRANCH   1   3
ATOM      2  C   MET A   4      36.398   2.564  34.635  0.00  0.00    +0.241 C 
ATOM      3  N   VAL A   5      37.055   2.664  35.784  0.00  0.00    -0.297 N 
ATOM      4  H   VAL A   5      38.032   2.315  35.857  0.00  0.00    +0.150 HD
ATOM      5  O   MET A   4      35.277   3.045  34.479  0.00  0.00    -0.273 OA
BRANCH   2   6
ATOM      6  CA  MET A   4      37.096   1.837  33.488  0.00  0.00    +0.149 C 
BRANCH   6   8
ATOM      7  C   GLY A   3      38.841   3.419  32.951  0.00  0.00    +0.243 C 
ATOM      8  N   MET A   4      38.497   2.205  33.360  0.00  0.00    -0.297 N 
ATOM      9  H   MET A   4      39.236   1.510  33.591  0.00  0.00    +0.150 HD
ATOM     10  O   GLY A   3      38.017   4.321  32.792  0.00  0.00    -0.273 OA
BRANCH   7  11
ATOM     11  CA  GLY A   3      40.316   3.653  32.690  0.00  0.00    +0.176 C 
BRANCH  11  13
ATOM     12  C   GLU A   2      41.264   1.444  32.444  0.00  0.00    +0.241 C 
ATOM     13  N   GLY A   3      41.161   2.566  33.149  0.00  0.00    -0.295 N 
ATOM     14  H   GLY A   3      41.691   2.666  34.038  0.00  0.00    +0.150 HD
ATOM     15  O   GLU A   2      40.625   1.241  31.411  0.00  0.00    -0.273 OA
BRANCH  12  16
ATOM     16  CA  GLU A   2      42.232   0.393  32.985  0.00  0.00    +0.149 C 
BRANCH  16  19
ATOM     17  C   VAL A   1      40.638  -1.259  33.814  0.00  0.00    +0.238 C 
ATOM     18  O   VAL A   1      40.078  -0.437  34.541  0.00  0.00    -0.274 OA
ATOM     19  N   GLU A   2      41.636  -0.937  32.997  0.00  0.00    -0.297 N 
ATOM     20  H   GLU A   2      42.004  -1.658  32.344  0.00  0.00    +0.150 HD
BRANCH  17  21
ATOM     21  CA  VAL A   1      40.204  -2.726  33.792  0.00  0.00    +0.145 C 
BRANCH  21  22
ATOM     22  CB  VAL A   1      39.171  -2.915  32.659  0.00  0.00    +0.025 C 
ATOM     23  CG2 VAL A   1      38.854  -4.393  32.489  0.00  0.00    +0.002 C 
ATOM     24  CG1 VAL A   1      39.720  -2.347  31.357  0.00  0.00    +0.002 C 
ENDBRANCH  21  22
BRANCH  21  25
ATOM     25  N   VAL A   1      39.676  -3.196  35.072  0.00  0.00    -0.238 NA
ATOM     26  H   VAL A   1      38.891  -2.678  35.515  0.00  0.00    +0.142 HD
ENDBRANCH  21  25
ENDBRANCH  17  21
ENDBRANCH  16  19
BRANCH  16  27
ATOM     27  CB  GLU A   2      43.506   0.383  32.134  0.00  0.00    +0.041 C 
BRANCH  27  28
ATOM     28  CG  GLU A   2      44.302   1.683  32.159  0.00  0.00    +0.116 C 
BRANCH  28  29
ATOM     29  CD  GLU A   2      45.610   1.577  31.395  0.00  0.00    +0.365 C 
ATOM     30  OE2 GLU A   2      46.295   2.611  31.235  0.00  0.00    -0.246 OA
ATOM     31  OE1 GLU A   2      45.957   0.460  30.954  0.00  0.00    -0.246 OA
ENDBRANCH  28  29
ENDBRANCH  27  28
ENDBRANCH  16  27
ENDBRANCH  12  16
ENDBRANCH  11  13
ENDBRANCH   7  11
ENDBRANCH   6   8
BRANCH   6  32
ATOM     32  CB  MET A   4      36.967   0.321  33.664  0.00  0.00    +0.041 C 
BRANCH  32  33
ATOM     33  CG  MET A   4      35.534  -0.179  33.745  0.00  0.00    +0.060 C 
BRANCH  33  34
ATOM     34  SD  MET A   4      35.425  -1.980  33.621  0.00  0.00    -0.139 S 
ATOM     35  CE  MET A   4      35.554  -2.189  31.893  0.00  0.00    +0.069 C 
ENDBRANCH  33  34
ENDBRANCH  32  33
ENDBRANCH   6  32
ENDBRANCH   2   6
ENDBRANCH   1   3
BRANCH   1  36
ATOM     36  C   VAL A   5      36.044   4.715  36.630  0.00  0.00    +0.241 C 
ATOM     37  O   VAL A   5      35.019   5.219  37.079  0.00  0.00    -0.273 OA
ATOM     38  N   GLU A   6      36.883   5.379  35.843  0.00  0.00    -0.297 N 
ATOM     39  H   GLU A   6      37.732   4.898  35.483  0.00  0.00    +0.150 HD
BRANCH  38  40
ATOM     40  CA  GLU A   6      36.639   6.770  35.472  0.00  0.00    +0.149 C 
BRANCH  40  41
ATOM     41  C   GLU A   6      35.392   6.882  34.598  0.00  0.00    +0.241 C 
ATOM     42  O   GLU A   6      34.565   7.780  34.773  0.00  0.00    -0.273 OA
ATOM     43  N   ILE A   7      35.255   5.959  33.656  0.00  0.00    -0.297 N 
ATOM     44  H   ILE A   7      35.985   5.227  33.542  0.00  0.00    +0.150 HD
BRANCH  43  45
ATOM     45  CA  ILE A   7      34.093   5.962  32.781  0.00  0.00    +0.149 C 
BRANCH  45  46
ATOM     46  C   ILE A   7      32.826   5.577  33.541  0.00  0.00    +0.241 C 
ATOM     47  N   PHE A   8      32.931   4.588  34.424  0.00  0.00    -0.298 N 
ATOM     48  H   PHE A   8      33.819   4.050  34.483  0.00  0.00    +0.150 HD
ATOM     49  O   ILE A   7      31.772   6.185  33.343  0.00  0.00    -0.273 OA
BRANCH  47  50
ATOM     50  CA  PHE A   8      31.822   4.241  35.315  0.00  0.00    +0.141 C 
BRANCH  50  51
ATOM     51  C   PHE A   8      31.331   5.454  36.107  0.00  0.00    +0.227 C 
ATOM     52  O   PHE A   8      30.129   5.688  36.220  0.00  0.00    -0.286 OA
ENDBRANCH  50  51
BRANCH  50  53
ATOM     53  CB  PHE A   8      32.241   3.142  36.295  0.00  0.00    +0.054 C 
BRANCH  53  54
ATOM     54  CG  PHE A   8      32.112   1.747  35.742  0.00  0.00    -0.020 A 
ATOM     55  CD2 PHE A   8      31.776   0.690  36.574  0.00  0.00    -0.004 A 
ATOM     56  CE2 PHE A   8      31.672  -0.603  36.080  0.00  0.00    -0.000 A 
ATOM     57  CZ  PHE A   8      31.903  -0.852  34.735  0.00  0.00    -0.000 A 
ATOM     58  CE1 PHE A   8      32.237   0.197  33.888  0.00  0.00    -0.000 A 
ATOM     59  CD1 PHE A   8      32.340   1.492  34.395  0.00  0.00    -0.004 A 
ENDBRANCH  53  54
ENDBRANCH  50  53
ENDBRANCH  47  50
ENDBRANCH  45  46
BRANCH  45  60
ATOM     60  CB  ILE A   7      34.321   5.019  31.579  0.00  0.00    +0.027 C 
ATOM     61  CG2 ILE A   7      33.014   4.778  30.824  0.00  0.00    +0.002 C 
BRANCH  60  62
ATOM     62  CG1 ILE A   7      35.376   5.642  30.660  0.00  0.00    +0.002 C 
ATOM     63  CD1 ILE A   7      35.744   4.798  29.486  0.00  0.00    +0.000 C 
ENDBRANCH  60  62
ENDBRANCH  45  60
ENDBRANCH  43  45
ENDBRANCH  40  41
BRANCH  40  64
ATOM     64  CB  GLU A   6      37.845   7.338  34.714  0.00  0.00    +0.041 C 
BRANCH  64  65
ATOM     65  CG  GLU A   6      37.710   8.817  34.383  0.00  0.00    +0.116 C 
BRANCH  65  66
ATOM     66  CD  GLU A   6      38.775   9.321  33.421  0.00  0.00    +0.365 C 
ATOM     67  OE2 GLU A   6      38.975  10.556  33.358  0.00  0.00    -0.246 OA
ATOM     68  OE1 GLU A   6      39.407   8.494  32.728  0.00  0.00    -0.246 OA
ENDBRANCH  65  66
ENDBRANCH  64  65
ENDBRANCH  40  64
ENDBRANCH  38  40
ENDBRANCH   1  36
BRANCH   1  69
ATOM     69  CB  VAL A   5      37.318   3.228  38.190  0.00  0.00    +0.027 C 
ATOM     70  CG2 VAL A   5      36.479   3.271  39.452  0.00  0.00    +0.002 C 
ATOM     71  CG1 VAL A   5      38.293   4.382  38.149  0.00  0.00    +0.002 C 
ENDBRANCH   1  69
TORSDOF 31
REMARK  Name = ../refined-set-2016/2ayr/2ayr_pocket.pdb
REMARK  258 active torsions:
REMARK  status: ('A' for Active; 'I' for Inactive)
REMARK    1  A    between atoms: _1  and  _3
REMARK    2  A    between atoms: _3  and  _4
REMARK    3  A    between atoms: _3  and  _6
REMARK    4  A    between atoms: _6  and  _7
REMARK    5  A    between atoms: _10  and  _12
REMARK    6  A    between atoms: _12  and  _13
REMARK    7  A    between atoms: _12  and  _15
REMARK    8  A    between atoms: _15  and  _16
REMARK    9  A    between atoms: _16  and  _17
REMARK   10  A    between atoms: _19  and  _21
REMARK   11  A    between atoms: _21  and  _22
REMARK   12  A    between atoms: _21  and  _24
REMARK   13  A    between atoms: _24  and  _25
REMARK   14  A    between atoms: _25  and  _26
REMARK   15  A    between atoms: _28  and  _30
REMARK   16  A    between atoms: _30  and  _31
REMARK   17  A    between atoms: _33  and  _35
REMARK   18  A    between atoms: _35  and  _36
REMARK   19  A    between atoms: _35  and  _38
REMARK   20  A    between atoms: _38  and  _39
REMARK   21  A    between atoms: _42  and  _44
REMARK   22  A    between atoms: _44  and  _45
REMARK   23  A    between atoms: _44  and  _47
REMARK   24  A    between atoms: _47  and  _48
REMARK   25  A    between atoms: _51  and  _53
REMARK   26  A    between atoms: _53  and  _54
REMARK   27  A    between atoms: _53  and  _56
REMARK   28  A    between atoms: _56  and  _57
REMARK   29  A    between atoms: _60  and  _62
REMARK   30  A    between atoms: _62  and  _63
REMARK   31  A    between atoms: _62  and  _65
REMARK   32  A    between atoms: _65  and  _66
REMARK   33  A    between atoms: _71  and  _73
REMARK   34  A    between atoms: _73  and  _74
REMARK   35  A    between atoms: _73  and  _76
REMARK   36  A    between atoms: _76  and  _77
REMARK   37  A    between atoms: _80  and  _82
REMARK   38  A    between atoms: _82  and  _83
REMARK   39  A    between atoms: _86  and  _88
REMARK   40  A    between atoms: _88  and  _89
REMARK   41  A    between atoms: _88  and  _91
REMARK   42  A    between atoms: _91  and  _92
REMARK   43  A    between atoms: _95  and  _97
REMARK   44  A    between atoms: _97  and  _98
REMARK   45  A    between atoms: _97  and  _100
REMARK   46  A    between atoms: _100  and  _101
REMARK   47  A    between atoms: _101  and  _102
REMARK   48  A    between atoms: _102  and  _103
REMARK   49  A    between atoms: _112  and  _114
REMARK   50  A    between atoms: _114  and  _115
REMARK   51  A    between atoms: _114  and  _117
REMARK   52  A    between atoms: _117  and  _118
REMARK   53  A    between atoms: _118  and  _119
REMARK   54  A    between atoms: _122  and  _124
REMARK   55  A    between atoms: _124  and  _125
REMARK   56  A    between atoms: _124  and  _127
REMARK   57  A    between atoms: _127  and  _128
REMARK   58  A    between atoms: _131  and  _133
REMARK   59  A    between atoms: _133  and  _134
REMARK   60  A    between atoms: _133  and  _136
REMARK   61  A    between atoms: _139  and  _141
REMARK   62  A    between atoms: _141  and  _142
REMARK   63  A    between atoms: _141  and  _144
REMARK   64  A    between atoms: _144  and  _145
REMARK   65  A    between atoms: _145  and  _146
REMARK   66  A    between atoms: _148  and  _150
REMARK   67  A    between atoms: _150  and  _151
REMARK   68  A    between atoms: _150  and  _153
REMARK   69  A    between atoms: _153  and  _154
REMARK   70  A    between atoms: _164  and  _166
REMARK   71  A    between atoms: _166  and  _167
REMARK   72  A    between atoms: _166  and  _169
REMARK   73  A    between atoms: _169  and  _170
REMARK   74  A    between atoms: _173  and  _175
REMARK   75  A    between atoms: _175  and  _176
REMARK   76  A    between atoms: _175  and  _178
REMARK   77  A    between atoms: _178  and  _179
REMARK   78  A    between atoms: _179  and  _180
REMARK   79  A    between atoms: _183  and  _185
REMARK   80  A    between atoms: _185  and  _186
REMARK   81  A    between atoms: _185  and  _188
REMARK   82  A    between atoms: _188  and  _189
REMARK   83  A    between atoms: _192  and  _194
REMARK   84  A    between atoms: _194  and  _195
REMARK   85  A    between atoms: _194  and  _197
REMARK   86  A    between atoms: _197  and  _198
REMARK   87  A    between atoms: _201  and  _203
REMARK   88  A    between atoms: _203  and  _204
REMARK   89  A    between atoms: _203  and  _206
REMARK   90  A    between atoms: _206  and  _207
REMARK   91  A    between atoms: _207  and  _208
REMARK   92  A    between atoms: _210  and  _212
REMARK   93  A    between atoms: _212  and  _213
REMARK   94  A    between atoms: _212  and  _215
REMARK   95  A    between atoms: _215  and  _216
REMARK   96  A    between atoms: _219  and  _221
REMARK   97  A    between atoms: _221  and  _222
REMARK   98  A    between atoms: _224  and  _226
REMARK   99  A    between atoms: _226  and  _227
REMARK  100  A    between atoms: _226  and  _229
REMARK  101  A    between atoms: _229  and  _230
REMARK  102  A    between atoms: _233  and  _235
REMARK  103  A    between atoms: _235  and  _236
REMARK  104  A    between atoms: _235  and  _238
REMARK  105  A    between atoms: _241  and  _243
REMARK  106  A    between atoms: _243  and  _244
REMARK  107  A    between atoms: _243  and  _246
REMARK  108  A    between atoms: _246  and  _247
REMARK  109  A    between atoms: _247  and  _248
REMARK  110  A    between atoms: _248  and  _249
REMARK  111  A    between atoms: _258  and  _260
REMARK  112  A    between atoms: _260  and  _261
REMARK  113  A    between atoms: _260  and  _263
REMARK  114  A    between atoms: _263  and  _264
REMARK  115  A    between atoms: _266  and  _268
REMARK  116  A    between atoms: _268  and  _269
REMARK  117  A    between atoms: _268  and  _271
REMARK  118  A    between atoms: _271  and  _272
REMARK  119  A    between atoms: _275  and  _277
REMARK  120  A    between atoms: _277  and  _278
REMARK  121  A    between atoms: _277  and  _280
REMARK  122  A    between atoms: _280  and  _281
REMARK  123  A    between atoms: _284  and  _286
REMARK  124  A    between atoms: _286  and  _287
REMARK  125  A    between atoms: _286  and  _289
REMARK  126  A    between atoms: _289  and  _290
REMARK  127  A    between atoms: _296  and  _298
REMARK  128  A    between atoms: _298  and  _299
REMARK  129  A    between atoms: _302  and  _304
REMARK  130  A    between atoms: _304  and  _305
REMARK  131  A    between atoms: _304  and  _307
REMARK  132  A    between atoms: _307  and  _308
REMARK  133  A    between atoms: _311  and  _313
REMARK  134  A    between atoms: _313  and  _314
REMARK  135  A    between atoms: _316  and  _318
REMARK  136  A    between atoms: _318  and  _319
REMARK  137  A    between atoms: _318  and  _321
REMARK  138  A    between atoms: _324  and  _326
REMARK  139  A    between atoms: _326  and  _327
REMARK  140  A    between atoms: _326  and  _329
REMARK  141  A    between atoms: _329  and  _330
REMARK  142  A    between atoms: _330  and  _331
REMARK  143  A    between atoms: _334  and  _336
REMARK  144  A    between atoms: _336  and  _337
REMARK  145  A    between atoms: _339  and  _341
REMARK  146  A    between atoms: _341  and  _342
REMARK  147  A    between atoms: _341  and  _344
REMARK  148  A    between atoms: _344  and  _345
REMARK  149  A    between atoms: _345  and  _346
REMARK  150  A    between atoms: _348  and  _350
REMARK  151  A    between atoms: _350  and  _351
REMARK  152  A    between atoms: _350  and  _353
REMARK  153  A    between atoms: _356  and  _358
REMARK  154  A    between atoms: _358  and  _359
REMARK  155  A    between atoms: _358  and  _361
REMARK  156  A    between atoms: _361  and  _362
REMARK  157  A    between atoms: _362  and  _363
REMARK  158  A    between atoms: _366  and  _368
REMARK  159  A    between atoms: _368  and  _369
REMARK  160  A    between atoms: _368  and  _371
REMARK  161  A    between atoms: _371  and  _372
REMARK  162  A    between atoms: _375  and  _377
REMARK  163  A    between atoms: _377  and  _378
REMARK  164  A    between atoms: _377  and  _380
REMARK  165  A    between atoms: _380  and  _381
REMARK  166  A    between atoms: _387  and  _389
REMARK  167  A    between atoms: _389  and  _390
REMARK  168  A    between atoms: _389  and  _392
REMARK  169  A    between atoms: _392  and  _393
REMARK  170  A    between atoms: _396  and  _398
REMARK  171  A    between atoms: _398  and  _399
REMARK  172  A    between atoms: _398  and  _401
REMARK  173  A    between atoms: _401  and  _402
REMARK  174  A    between atoms: _402  and  _403
REMARK  175  A    between atoms: _405  and  _407
REMARK  176  A    between atoms: _407  and  _408
REMARK  177  A    between atoms: _407  and  _410
REMARK  178  A    between atoms: _410  and  _411
REMARK  179  A    between atoms: _413  and  _415
REMARK  180  A    between atoms: _415  and  _416
REMARK  181  A    between atoms: _415  and  _418
REMARK  182  A    between atoms: _418  and  _419
REMARK  183  A    between atoms: _424  and  _426
REMARK  184  A    between atoms: _426  and  _427
REMARK  185  A    between atoms: _426  and  _429
REMARK  186  A    between atoms: _429  and  _430
REMARK  187  A    between atoms: _430  and  _431
REMARK  188  A    between atoms: _431  and  _432
REMARK  189  A    between atoms: _432  and  _433
REMARK  190  A    between atoms: _437  and  _439
REMARK  191  A    between atoms: _439  and  _440
REMARK  192  A    between atoms: _442  and  _444
REMARK  193  A    between atoms: _444  and  _445
REMARK  194  A    between atoms: _444  and  _447
REMARK  195  A    between atoms: _447  and  _448
REMARK  196  A    between atoms: _448  and  _449
REMARK  197  A    between atoms: _451  and  _453
REMARK  198  A    between atoms: _453  and  _454
REMARK  199  A    between atoms: _453  and  _456
REMARK  200  A    between atoms: _456  and  _457
REMARK  201  A    between atoms: _457  and  _458
REMARK  202  A    between atoms: _461  and  _463
REMARK  203  A    between atoms: _463  and  _464
REMARK  204  A    between atoms: _463  and  _466
REMARK  205  A    between atoms: _466  and  _467
REMARK  206  A    between atoms: _472  and  _474
REMARK  207  A    between atoms: _474  and  _475
REMARK  208  A    between atoms: _474  and  _477
REMARK  209  A    between atoms: _477  and  _478
REMARK  210  A    between atoms: _481  and  _483
REMARK  211  A    between atoms: _483  and  _484
REMARK  212  A    between atoms: _483  and  _486
REMARK  213  A    between atoms: _486  and  _487
REMARK  214  A    between atoms: _492  and  _493
REMARK  215  A    between atoms: _495  and  _497
REMARK  216  A    between atoms: _497  and  _498
REMARK  217  A    between atoms: _497  and  _500
REMARK  218  A    between atoms: _500  and  _501
REMARK  219  A    between atoms: _503  and  _505
REMARK  220  A    between atoms: _505  and  _506
REMARK  221  A    between atoms: _505  and  _508
REMARK  222  A    between atoms: _508  and  _509
REMARK  223  A    between atoms: _509  and  _510
REMARK  224  A    between atoms: _512  and  _514
REMARK  225  A    between atoms: _514  and  _515
REMARK  226  A    between atoms: _514  and  _517
REMARK  227  A    between atoms: _517  and  _518
REMARK  228  A    between atoms: _518  and  _519
REMARK  229  A    between atoms: _519  and  _520
REMARK  230  A    between atoms: _520  and  _521
REMARK  231  A    between atoms: _525  and  _527
REMARK  232  A    between atoms: _527  and  _528
REMARK  233  A    between atoms: _527  and  _530
REMARK  234  A    between atoms: _530  and  _531
REMARK  235  A    between atoms: _531  and  _532
REMARK  236  A    between atoms: _532  and  _533
REMARK  237  A    between atoms: _533  and  _534
REMARK  238  A    between atoms: _538  and  _540
REMARK  239  A    between atoms: _540  and  _541
REMARK  240  A    between atoms: _540  and  _543
REMARK  241  A    between atoms: _547  and  _548
REMARK  242  A    between atoms: _553  and  _555
REMARK  243  A    between atoms: _555  and  _556
REMARK  244  A    between atoms: _555  and  _558
REMARK  245  A    between atoms: _558  and  _559
REMARK  246  A    between atoms: _562  and  _564
REMARK  247  A    between atoms: _564  and  _565
REMARK  248  A    between atoms: _564  and  _567
REMARK  249  A    between atoms: _567  and  _568
REMARK  250  A    between atoms: _571  and  _573
REMARK  251  A    between atoms: _573  and  _574
REMARK  252  A    between atoms: _573  and  _576
REMARK  253  A    between atoms: _576  and  _577
REMARK  254  A    between atoms: _580  and  _582
REMARK  255  A    between atoms: _582  and  _583
REMARK  256  A    between atoms: _582  and  _585
REMARK  257  A    between atoms: _585  and  _586
REMARK  258  A    between atoms: _586  and  _587
REMARK                            x       y       z     vdW  Elec       q    Type
REMARK                         _______ _______ _______ _____ _____    ______ ____
ROOT
ATOM      1  CA  LEU A   1      28.123   7.174  33.490  0.00  0.00    +0.133 C 
ENDROOT
BRANCH   1   2
ATOM      2  N   LEU A   1      29.422   7.760  33.812  0.00  0.00    -0.239 NA
ATOM      3  H   LEU A   1      30.263   7.150  33.851  0.00  0.00    +0.142 HD
ENDBRANCH   1   2
BRANCH   1   4
ATOM      4  C   LEU A   1      27.165   7.296  34.673  0.00  0.00    +0.224 C 
ATOM      5  O   LEU A   1      25.999   7.661  34.508  0.00  0.00    -0.287 OA
ENDBRANCH   1   4
BRANCH   1   6
ATOM      6  CB  LEU A   1      28.298   5.706  33.094  0.00  0.00    +0.025 C 
BRANCH   6   7
ATOM      7  CG  LEU A   1      28.928   5.502  31.717  0.00  0.00    +0.002 C 
ATOM      8  CD2 LEU A   1      29.517   4.111  31.603  0.00  0.00    +0.000 C 
ATOM      9  CD1 LEU A   1      27.870   5.744  30.642  0.00  0.00    +0.000 C 
ENDBRANCH   6   7
ENDBRANCH   1   6
TORSDOF 4
REMARK  Name = ../refined-set-2016/2ayr/2ayr_pocket.pdb
REMARK  258 active torsions:
REMARK  status: ('A' for Active; 'I' for Inactive)
REMARK    1  A    between atoms: _1  and  _3
REMARK    2  A    between atoms: _3  and  _4
REMARK    3  A    between atoms: _3  and  _6
REMARK    4  A    between atoms: _6  and  _7
REMARK    5  A    between atoms: _10  and  _12
REMARK    6  A    between atoms: _12  and  _13
REMARK    7  A    between atoms: _12  and  _15
REMARK    8  A    between atoms: _15  and  _16
REMARK    9  A    between atoms: _16  and  _17
REMARK   10  A    between atoms: _19  and  _21
REMARK   11  A    between atoms: _21  and  _22
REMARK   12  A    between atoms: _21  and  _24
REMARK   13  A    between atoms: _24  and  _25
REMARK   14  A    between atoms: _25  and  _26
REMARK   15  A    between atoms: _28  and  _30
REMARK   16  A    between atoms: _30  and  _31
REMARK   17  A    between atoms: _33  and  _35
REMARK   18  A    between atoms: _35  and  _36
REMARK   19  A    between atoms: _35  and  _38
REMARK   20  A    between atoms: _38  and  _39
REMARK   21  A    between atoms: _42  and  _44
REMARK   22  A    between atoms: _44  and  _45
REMARK   23  A    between atoms: _44  and  _47
REMARK   24  A    between atoms: _47  and  _48
REMARK   25  A    between atoms: _51  and  _53
REMARK   26  A    between atoms: _53  and  _54
REMARK   27  A    between atoms: _53  and  _56
REMARK   28  A    between atoms: _56  and  _57
REMARK   29  A    between atoms: _60  and  _62
REMARK   30  A    between atoms: _62  and  _63
REMARK   31  A    between atoms: _62  and  _65
REMARK   32  A    between atoms: _65  and  _66
REMARK   33  A    between atoms: _71  and  _73
REMARK   34  A    between atoms: _73  and  _74
REMARK   35  A    between atoms: _73  and  _76
REMARK   36  A    between atoms: _76  and  _77
REMARK   37  A    between atoms: _80  and  _82
REMARK   38  A    between atoms: _82  and  _83
REMARK   39  A    between atoms: _86  and  _88
REMARK   40  A    between atoms: _88  and  _89
REMARK   41  A    between atoms: _88  and  _91
REMARK   42  A    between atoms: _91  and  _92
REMARK   43  A    between atoms: _95  and  _97
REMARK   44  A    between atoms: _97  and  _98
REMARK   45  A    between atoms: _97  and  _100
REMARK   46  A    between atoms: _100  and  _101
REMARK   47  A    between atoms: _101  and  _102
REMARK   48  A    between atoms: _102  and  _103
REMARK   49  A    between atoms: _112  and  _114
REMARK   50  A    between atoms: _114  and  _115
REMARK   51  A    between atoms: _114  and  _117
REMARK   52  A    between atoms: _117  and  _118
REMARK   53  A    between atoms: _118  and  _119
REMARK   54  A    between atoms: _122  and  _124
REMARK   55  A    between atoms: _124  and  _125
REMARK   56  A    between atoms: _124  and  _127
REMARK   57  A    between atoms: _127  and  _128
REMARK   58  A    between atoms: _131  and  _133
REMARK   59  A    between atoms: _133  and  _134
REMARK   60  A    between atoms: _133  and  _136
REMARK   61  A    between atoms: _139  and  _141
REMARK   62  A    between atoms: _141  and  _142
REMARK   63  A    between atoms: _141  and  _144
REMARK   64  A    between atoms: _144  and  _145
REMARK   65  A    between atoms: _145  and  _146
REMARK   66  A    between atoms: _148  and  _150
REMARK   67  A    between atoms: _150  and  _151
REMARK   68  A    between atoms: _150  and  _153
REMARK   69  A    between atoms: _153  and  _154
REMARK   70  A    between atoms: _164  and  _166
REMARK   71  A    between atoms: _166  and  _167
REMARK   72  A    between atoms: _166  and  _169
REMARK   73  A    between atoms: _169  and  _170
REMARK   74  A    between atoms: _173  and  _175
REMARK   75  A    between atoms: _175  and  _176
REMARK   76  A    between atoms: _175  and  _178
REMARK   77  A    between atoms: _178  and  _179
REMARK   78  A    between atoms: _179  and  _180
REMARK   79  A    between atoms: _183  and  _185
REMARK   80  A    between atoms: _185  and  _186
REMARK   81  A    between atoms: _185  and  _188
REMARK   82  A    between atoms: _188  and  _189
REMARK   83  A    between atoms: _192  and  _194
REMARK   84  A    between atoms: _194  and  _195
REMARK   85  A    between atoms: _194  and  _197
REMARK   86  A    between atoms: _197  and  _198
REMARK   87  A    between atoms: _201  and  _203
REMARK   88  A    between atoms: _203  and  _204
REMARK   89  A    between atoms: _203  and  _206
REMARK   90  A    between atoms: _206  and  _207
REMARK   91  A    between atoms: _207  and  _208
REMARK   92  A    between atoms: _210  and  _212
REMARK   93  A    between atoms: _212  and  _213
REMARK   94  A    between atoms: _212  and  _215
REMARK   95  A    between atoms: _215  and  _216
REMARK   96  A    between atoms: _219  and  _221
REMARK   97  A    between atoms: _221  and  _222
REMARK   98  A    between atoms: _224  and  _226
REMARK   99  A    between atoms: _226  and  _227
REMARK  100  A    between atoms: _226  and  _229
REMARK  101  A    between atoms: _229  and  _230
REMARK  102  A    between atoms: _233  and  _235
REMARK  103  A    between atoms: _235  and  _236
REMARK  104  A    between atoms: _235  and  _238
REMARK  105  A    between atoms: _241  and  _243
REMARK  106  A    between atoms: _243  and  _244
REMARK  107  A    between atoms: _243  and  _246
REMARK  108  A    between atoms: _246  and  _247
REMARK  109  A    between atoms: _247  and  _248
REMARK  110  A    between atoms: _248  and  _249
REMARK  111  A    between atoms: _258  and  _260
REMARK  112  A    between atoms: _260  and  _261
REMARK  113  A    between atoms: _260  and  _263
REMARK  114  A    between atoms: _263  and  _264
REMARK  115  A    between atoms: _266  and  _268
REMARK  116  A    between atoms: _268  and  _269
REMARK  117  A    between atoms: _268  and  _271
REMARK  118  A    between atoms: _271  and  _272
REMARK  119  A    between atoms: _275  and  _277
REMARK  120  A    between atoms: _277  and  _278
REMARK  121  A    between atoms: _277  and  _280
REMARK  122  A    between atoms: _280  and  _281
REMARK  123  A    between atoms: _284  and  _286
REMARK  124  A    between atoms: _286  and  _287
REMARK  125  A    between atoms: _286  and  _289
REMARK  126  A    between atoms: _289  and  _290
REMARK  127  A    between atoms: _296  and  _298
REMARK  128  A    between atoms: _298  and  _299
REMARK  129  A    between atoms: _302  and  _304
REMARK  130  A    between atoms: _304  and  _305
REMARK  131  A    between atoms: _304  and  _307
REMARK  132  A    between atoms: _307  and  _308
REMARK  133  A    between atoms: _311  and  _313
REMARK  134  A    between atoms: _313  and  _314
REMARK  135  A    between atoms: _316  and  _318
REMARK  136  A    between atoms: _318  and  _319
REMARK  137  A    between atoms: _318  and  _321
REMARK  138  A    between atoms: _324  and  _326
REMARK  139  A    between atoms: _326  and  _327
REMARK  140  A    between atoms: _326  and  _329
REMARK  141  A    between atoms: _329  and  _330
REMARK  142  A    between atoms: _330  and  _331
REMARK  143  A    between atoms: _334  and  _336
REMARK  144  A    between atoms: _336  and  _337
REMARK  145  A    between atoms: _339  and  _341
REMARK  146  A    between atoms: _341  and  _342
REMARK  147  A    between atoms: _341  and  _344
REMARK  148  A    between atoms: _344  and  _345
REMARK  149  A    between atoms: _345  and  _346
REMARK  150  A    between atoms: _348  and  _350
REMARK  151  A    between atoms: _350  and  _351
REMARK  152  A    between atoms: _350  and  _353
REMARK  153  A    between atoms: _356  and  _358
REMARK  154  A    between atoms: _358  and  _359
REMARK  155  A    between atoms: _358  and  _361
REMARK  156  A    between atoms: _361  and  _362
REMARK  157  A    between atoms: _362  and  _363
REMARK  158  A    between atoms: _366  and  _368
REMARK  159  A    between atoms: _368  and  _369
REMARK  160  A    between atoms: _368  and  _371
REMARK  161  A    between atoms: _371  and  _372
REMARK  162  A    between atoms: _375  and  _377
REMARK  163  A    between atoms: _377  and  _378
REMARK  164  A    between atoms: _377  and  _380
REMARK  165  A    between atoms: _380  and  _381
REMARK  166  A    between atoms: _387  and  _389
REMARK  167  A    between atoms: _389  and  _390
REMARK  168  A    between atoms: _389  and  _392
REMARK  169  A    between atoms: _392  and  _393
REMARK  170  A    between atoms: _396  and  _398
REMARK  171  A    between atoms: _398  and  _399
REMARK  172  A    between atoms: _398  and  _401
REMARK  173  A    between atoms: _401  and  _402
REMARK  174  A    between atoms: _402  and  _403
REMARK  175  A    between atoms: _405  and  _407
REMARK  176  A    between atoms: _407  and  _408
REMARK  177  A    between atoms: _407  and  _410
REMARK  178  A    between atoms: _410  and  _411
REMARK  179  A    between atoms: _413  and  _415
REMARK  180  A    between atoms: _415  and  _416
REMARK  181  A    between atoms: _415  and  _418
REMARK  182  A    between atoms: _418  and  _419
REMARK  183  A    between atoms: _424  and  _426
REMARK  184  A    between atoms: _426  and  _427
REMARK  185  A    between atoms: _426  and  _429
REMARK  186  A    between atoms: _429  and  _430
REMARK  187  A    between atoms: _430  and  _431
REMARK  188  A    between atoms: _431  and  _432
REMARK  189  A    between atoms: _432  and  _433
REMARK  190  A    between atoms: _437  and  _439
REMARK  191  A    between atoms: _439  and  _440
REMARK  192  A    between atoms: _442  and  _444
REMARK  193  A    between atoms: _444  and  _445
REMARK  194  A    between atoms: _444  and  _447
REMARK  195  A    between atoms: _447  and  _448
REMARK  196  A    between atoms: _448  and  _449
REMARK  197  A    between atoms: _451  and  _453
REMARK  198  A    between atoms: _453  and  _454
REMARK  199  A    between atoms: _453  and  _456
REMARK  200  A    between atoms: _456  and  _457
REMARK  201  A    between atoms: _457  and  _458
REMARK  202  A    between atoms: _461  and  _463
REMARK  203  A    between atoms: _463  and  _464
REMARK  204  A    between atoms: _463  and  _466
REMARK  205  A    between atoms: _466  and  _467
REMARK  206  A    between atoms: _472  and  _474
REMARK  207  A    between atoms: _474  and  _475
REMARK  208  A    between atoms: _474  and  _477
REMARK  209  A    between atoms: _477  and  _478
REMARK  210  A    between atoms: _481  and  _483
REMARK  211  A    between atoms: _483  and  _484
REMARK  212  A    between atoms: _483  and  _486
REMARK  213  A    between atoms: _486  and  _487
REMARK  214  A    between atoms: _492  and  _493
REMARK  215  A    between atoms: _495  and  _497
REMARK  216  A    between atoms: _497  and  _498
REMARK  217  A    between atoms: _497  and  _500
REMARK  218  A    between atoms: _500  and  _501
REMARK  219  A    between atoms: _503  and  _505
REMARK  220  A    between atoms: _505  and  _506
REMARK  221  A    between atoms: _505  and  _508
REMARK  222  A    between atoms: _508  and  _509
REMARK  223  A    between atoms: _509  and  _510
REMARK  224  A    between atoms: _512  and  _514
REMARK  225  A    between atoms: _514  and  _515
REMARK  226  A    between atoms: _514  and  _517
REMARK  227  A    between atoms: _517  and  _518
REMARK  228  A    between atoms: _518  and  _519
REMARK  229  A    between atoms: _519  and  _520
REMARK  230  A    between atoms: _520  and  _521
REMARK  231  A    between atoms: _525  and  _527
REMARK  232  A    between atoms: _527  and  _528
REMARK  233  A    between atoms: _527  and  _530
REMARK  234  A    between atoms: _530  and  _531
REMARK  235  A    between atoms: _531  and  _532
REMARK  236  A    between atoms: _532  and  _533
REMARK  237  A    between atoms: _533  and  _534
REMARK  238  A    between atoms: _538  and  _540
REMARK  239  A    between atoms: _540  and  _541
REMARK  240  A    between atoms: _540  and  _543
REMARK  241  A    between atoms: _547  and  _548
REMARK  242  A    between atoms: _553  and  _555
REMARK  243  A    between atoms: _555  and  _556
REMARK  244  A    between atoms: _555  and  _558
REMARK  245  A    between atoms: _558  and  _559
REMARK  246  A    between atoms: _562  and  _564
REMARK  247  A    between atoms: _564  and  _565
REMARK  248  A    between atoms: _564  and  _567
REMARK  249  A    between atoms: _567  and  _568
REMARK  250  A    between atoms: _571  and  _573
REMARK  251  A    between atoms: _573  and  _574
REMARK  252  A    between atoms: _573  and  _576
REMARK  253  A    between atoms: _576  and  _577
REMARK  254  A    between atoms: _580  and  _582
REMARK  255  A    between atoms: _582  and  _583
REMARK  256  A    between atoms: _582  and  _585
REMARK  257  A    between atoms: _585  and  _586
REMARK  258  A    between atoms: _586  and  _587
REMARK                            x       y       z     vdW  Elec       q    Type
REMARK                         _______ _______ _______ _____ _____    ______ ____
ROOT
ATOM      1  C   GLU A   7      41.006   4.452  24.071  0.00  0.00    +0.241 C 
ATOM      2  N   HIS A   8      40.347   3.959  25.114  0.00  0.00    -0.297 N 
ATOM      3  H   HIS A   8      39.509   4.462  25.469  0.00  0.00    +0.150 HD
ATOM      4  O   GLU A   7      41.977   3.894  23.561  0.00  0.00    -0.273 OA
ENDROOT
BRANCH   1   5
ATOM      5  CA  GLU A   7      40.489   5.774  23.532  0.00  0.00    +0.149 C 
BRANCH   5   7
ATOM      6  C   MET A   6      38.522   4.779  22.486  0.00  0.00    +0.241 C 
ATOM      7  N   GLU A   7      39.045   5.689  23.303  0.00  0.00    -0.297 N 
ATOM      8  H   GLU A   7      38.414   6.356  23.791  0.00  0.00    +0.150 HD
ATOM      9  O   MET A   6      39.210   4.008  21.816  0.00  0.00    -0.273 OA
BRANCH   6  10
ATOM     10  CA  MET A   6      36.997   4.709  22.417  0.00  0.00    +0.149 C 
BRANCH  10  13
ATOM     11  C   GLY A   5      36.496   4.457  24.770  0.00  0.00    +0.243 C 
ATOM     12  O   GLY A   5      37.181   3.439  24.832  0.00  0.00    -0.273 OA
ATOM     13  N   MET A   6      36.352   5.148  23.646  0.00  0.00    -0.297 N 
ATOM     14  H   MET A   6      35.773   6.012  23.643  0.00  0.00    +0.150 HD
BRANCH  11  15
ATOM     15  CA  GLY A   5      35.786   4.985  26.003  0.00  0.00    +0.176 C 
BRANCH  15  18
ATOM     16  C   LYS A   4      37.139   6.965  26.285  0.00  0.00    +0.241 C 
ATOM     17  O   LYS A   4      38.169   6.293  26.353  0.00  0.00    -0.273 OA
ATOM     18  N   GLY A   5      35.933   6.424  26.141  0.00  0.00    -0.295 N 
ATOM     19  H   GLY A   5      35.091   7.034  26.127  0.00  0.00    +0.150 HD
BRANCH  16  20
ATOM     20  CA  LYS A   4      37.197   8.493  26.336  0.00  0.00    +0.149 C 
BRANCH  20  22
ATOM     21  C   ASN A   3      36.478   8.890  24.060  0.00  0.00    +0.241 C 
ATOM     22  N   LYS A   4      36.273   9.054  25.361  0.00  0.00    -0.297 N 
ATOM     23  H   LYS A   4      35.443   9.589  25.687  0.00  0.00    +0.150 HD
ATOM     24  O   ASN A   3      37.428   8.239  23.607  0.00  0.00    -0.273 OA
BRANCH  21  25
ATOM     25  CA  ASN A   3      35.480   9.569  23.130  0.00  0.00    +0.158 C 
BRANCH  25  27
ATOM     26  C   SER A   2      33.631   8.076  23.653  0.00  0.00    +0.243 C 
ATOM     27  N   ASN A   3      34.100   9.319  23.540  0.00  0.00    -0.297 N 
ATOM     28  H   ASN A   3      33.474  10.123  23.747  0.00  0.00    +0.150 HD
ATOM     29  O   SER A   2      34.312   7.084  23.385  0.00  0.00    -0.273 OA
BRANCH  26  30
ATOM     30  CA  SER A   2      32.189   7.929  24.149  0.00  0.00    +0.178 C 
BRANCH  30  33
ATOM     31  C   MET A   1      32.609   8.676  26.416  0.00  0.00    +0.238 C 
ATOM     32  O   MET A   1      33.457   7.797  26.591  0.00  0.00    -0.274 OA
ATOM     33  N   SER A   2      31.949   8.824  25.274  0.00  0.00    -0.295 N 
ATOM     34  H   SER A   2      31.251   9.589  25.181  0.00  0.00    +0.150 HD
BRANCH  31  35
ATOM     35  CA  MET A   1      32.280   9.659  27.532  0.00  0.00    +0.146 C 
BRANCH  35  36
ATOM     36  N   MET A   1      32.142  11.018  27.028  0.00  0.00    -0.238 NA
ATOM     37  H   MET A   1      31.248  11.532  27.166  0.00  0.00    +0.142 HD
ENDBRANCH  35  36
BRANCH  35  38
ATOM     38  CB  MET A   1      30.999   9.227  28.245  0.00  0.00    +0.038 C 
BRANCH  38  39
ATOM     39  CG  MET A   1      30.738  10.000  29.515  0.00  0.00    +0.060 C 
BRANCH  39  40
ATOM     40  SD  MET A   1      29.500   9.221  30.553  0.00  0.00    -0.139 S 
ATOM     41  CE  MET A   1      28.008   9.612  29.642  0.00  0.00    +0.069 C 
ENDBRANCH  39  40
ENDBRANCH  38  39
ENDBRANCH  35  38
ENDBRANCH  31  35
ENDBRANCH  30  33
BRANCH  30  42
ATOM     42  CB  SER A   2      31.204   8.238  23.016  0.00  0.00    +0.166 C 
BRANCH  42  43
ATOM     43  OG  SER A   2      31.528   7.526  21.843  0.00  0.00    -0.380 OA
ATOM     44  H   SER A   2      32.438   7.778  21.546  0.00  0.00    +0.211 HD
ENDBRANCH  42  43
ENDBRANCH  30  42
ENDBRANCH  26  30
ENDBRANCH  25  27
BRANCH  25  45
ATOM     45  CB  ASN A   3      35.761  11.072  23.112  0.00  0.00    +0.114 C 
BRANCH  45  46
ATOM     46  CG  ASN A   3      35.025  11.787  22.010  0.00  0.00    +0.222 C 
ATOM     47  ND2 ASN A   3      34.708  13.058  22.238  0.00  0.00    -0.329 N 
ATOM     48 HD21 ASN A   3      34.965  13.504  23.142  0.00  0.00    +0.145 HD
ATOM     49 HD22 ASN A   3      34.203  13.606  21.513  0.00  0.00    +0.145 HD
ATOM     50  OD1 ASN A   3      34.746  11.209  20.959  0.00  0.00    -0.275 OA
ENDBRANCH  45  46
ENDBRANCH  25  45
ENDBRANCH  21  25
ENDBRANCH  20  22
BRANCH  20  51
ATOM     51  CB  LYS A   4      36.858   8.983  27.746  0.00  0.00    +0.029 C 
BRANCH  51  52
ATOM     52  CG  LYS A   4      36.980  10.489  27.937  0.00  0.00    +0.000 C 
BRANCH  52  53
ATOM     53  CD  LYS A   4      38.376  10.999  27.584  0.00  0.00    -0.024 C 
BRANCH  53  54
ATOM     54  CE  LYS A   4      39.427  10.468  28.548  0.00  0.00    -0.086 C 
BRANCH  54  55
ATOM     55  NZ  LYS A   4      40.800  10.966  28.205  0.00  0.00    +0.380 N 
ATOM     56  HZ1 LYS A   4      41.487  10.582  28.885  0.00  0.00    -0.089 HD
ATOM     57  HZ2 LYS A   4      40.811  12.005  28.248  0.00  0.00    -0.089 HD
ATOM     58  HZ3 LYS A   4      41.050  10.655  27.245  0.00  0.00    -0.089 HD
ENDBRANCH  54  55
ENDBRANCH  53  54
ENDBRANCH  52  53
ENDBRANCH  51  52
ENDBRANCH  20  51
ENDBRANCH  16  20
ENDBRANCH  15  18
ENDBRANCH  11  15
ENDBRANCH  10  13
BRANCH  10  59
ATOM     59  CB  MET A   6      36.479   5.519  21.227  0.00  0.00    +0.041 C 
BRANCH  59  60
ATOM     60  CG  MET A   6      35.159   4.989  20.692  0.00  0.00    +0.060 C 
BRANCH  60  61
ATOM     61  SD  MET A   6      34.610   5.828  19.219  0.00  0.00    -0.139 S 
ATOM     62  CE  MET A   6      32.930   5.212  19.095  0.00  0.00    +0.069 C 
ENDBRANCH  60  61
ENDBRANCH  59  60
ENDBRANCH  10  59
ENDBRANCH   6  10
ENDBRANCH   5   7
BRANCH   5  63
ATOM     63  CB  GLU A   7      40.811   6.861  24.556  0.00  0.00    +0.041 C 
BRANCH  63  64
ATOM     64  CG  GLU A   7      41.145   8.211  23.984  0.00  0.00    +0.116 C 
BRANCH  64  65
ATOM     65  CD  GLU A   7      41.622   9.168  25.057  0.00  0.00    +0.365 C 
ATOM     66  OE2 GLU A   7      42.607   8.846  25.756  0.00  0.00    -0.246 OA
ATOM     67  OE1 GLU A   7      41.005  10.241  25.203  0.00  0.00    -0.246 OA
ENDBRANCH  64  65
ENDBRANCH  63  64
ENDBRANCH   5  63
ENDBRANCH   1   5
BRANCH   2  68
ATOM     68  CA  HIS A   8      40.771   2.730  25.773  0.00  0.00    +0.155 C 
BRANCH  68  69
ATOM     69  C   HIS A   8      40.441   1.482  24.959  0.00  0.00    +0.241 C 
ATOM     70  O   HIS A   8      41.203   0.520  24.966  0.00  0.00    -0.273 OA
ATOM     71  N   LEU A   9      39.321   1.501  24.243  0.00  0.00    -0.297 N 
ATOM     72  H   LEU A   9      38.718   2.349  24.256  0.00  0.00    +0.150 HD
BRANCH  71  73
ATOM     73  CA  LEU A   9      38.925   0.347  23.438  0.00  0.00    +0.149 C 
BRANCH  73  74
ATOM     74  C   LEU A   9      39.882   0.175  22.262  0.00  0.00    +0.241 C 
ATOM     75  O   LEU A   9      40.110  -0.940  21.799  0.00  0.00    -0.273 OA
ATOM     76  N   TYR A  10      40.442   1.284  21.786  0.00  0.00    -0.297 N 
ATOM     77  H   TYR A  10      40.225   2.194  22.241  0.00  0.00    +0.150 HD
BRANCH  76  78
ATOM     78  CA  TYR A  10      41.352   1.262  20.644  0.00  0.00    +0.153 C 
BRANCH  78  79
ATOM     79  C   TYR A  10      42.742   0.775  21.034  0.00  0.00    +0.241 C 
ATOM     80  N   SER A  11      43.151   1.074  22.264  0.00  0.00    -0.295 N 
ATOM     81  H   SER A  11      42.576   1.711  22.851  0.00  0.00    +0.150 HD
ATOM     82  O   TYR A  10      43.436   0.151  20.230  0.00  0.00    -0.273 OA
BRANCH  80  83
ATOM     83  CA  SER A  11      44.390   0.527  22.807  0.00  0.00    +0.178 C 
BRANCH  83  84
ATOM     84  C   SER A  11      44.185  -0.970  22.999  0.00  0.00    +0.243 C 
ATOM     85  N   MET A  12      42.923  -1.350  23.159  0.00  0.00    -0.297 N 
ATOM     86  H   MET A  12      42.166  -0.665  22.961  0.00  0.00    +0.150 HD
ATOM     87  O   SER A  11      45.133  -1.755  22.983  0.00  0.00    -0.273 OA
BRANCH  85  88
ATOM     88  CA  MET A  12      42.557  -2.687  23.601  0.00  0.00    +0.149 C 
BRANCH  88  89
ATOM     89  C   MET A  12      42.116  -3.576  22.440  0.00  0.00    +0.241 C 
ATOM     90  O   MET A  12      42.376  -4.778  22.440  0.00  0.00    -0.273 OA
ATOM     91  N   LYS A  13      41.451  -2.990  21.449  0.00  0.00    -0.298 N 
ATOM     92  H   LYS A  13      41.267  -1.967  21.485  0.00  0.00    +0.150 HD
BRANCH  91  93
ATOM     93  CA  LYS A  13      40.978  -3.770  20.313  0.00  0.00    +0.137 C 
BRANCH  93  94
ATOM     94  C   LYS A  13      42.002  -3.805  19.188  0.00  0.00    +0.227 C 
ATOM     95  O   LYS A  13      42.141  -2.851  18.417  0.00  0.00    -0.286 OA
ENDBRANCH  93  94
BRANCH  93  96
ATOM     96  CB  LYS A  13      39.650  -3.221  19.777  0.00  0.00    +0.028 C 
BRANCH  96  97
ATOM     97  CG  LYS A  13      39.015  -4.144  18.741  0.00  0.00    -0.000 C 
BRANCH  97  98
ATOM     98  CD  LYS A  13      37.621  -3.702  18.321  0.00  0.00    -0.024 C 
BRANCH  98  99
ATOM     99  CE  LYS A  13      37.039  -4.663  17.290  0.00  0.00    -0.086 C 
BRANCH  99 100
ATOM    100  NZ  LYS A  13      35.735  -4.192  16.750  0.00  0.00    +0.380 N 
ATOM    101  HZ1 LYS A  13      35.051  -4.102  17.528  0.00  0.00    -0.089 HD
ATOM    102  HZ2 LYS A  13      35.865  -3.267  16.292  0.00  0.00    -0.089 HD
ATOM    103  HZ3 LYS A  13      35.381  -4.879  16.054  0.00  0.00    -0.089 HD
ENDBRANCH  99 100
ENDBRANCH  98  99
ENDBRANCH  97  98
ENDBRANCH  96  97
ENDBRANCH  93  96
ENDBRANCH  91  93
ENDBRANCH  88  89
BRANCH  88 104
ATOM    104  CB  MET A  12      41.443  -2.579  24.647  0.00  0.00    +0.041 C 
BRANCH 104 105
ATOM    105  CG  MET A  12      40.955  -3.895  25.218  0.00  0.00    +0.060 C 
BRANCH 105 106
ATOM    106  SD  MET A  12      39.594  -3.614  26.371  0.00  0.00    -0.139 S 
ATOM    107  CE  MET A  12      40.455  -2.898  27.773  0.00  0.00    +0.069 C 
ENDBRANCH 105 106
ENDBRANCH 104 105
ENDBRANCH  88 104
ENDBRANCH  85  88
ENDBRANCH  83  84
BRANCH  83 108
ATOM    108  CB  SER A  11      44.730   1.190  24.153  0.00  0.00    +0.166 C 
BRANCH 108 109
ATOM    109  OG  SER A  11      43.970   0.664  25.233  0.00  0.00    -0.380 OA
ATOM    110  H   SER A  11      43.006   0.809  25.058  0.00  0.00    +0.211 HD
ENDBRANCH 108 109
ENDBRANCH  83 108
ENDBRANCH  80  83
ENDBRANCH  78  79
BRANCH  78 111
ATOM    111  CB  TYR A  10      41.460   2.657  20.026  0.00  0.00    +0.055 C 
BRANCH 111 112
ATOM    112  CG  TYR A  10      42.412   2.742  18.851  0.00  0.00    -0.020 A 
ATOM    113  CD2 TYR A  10      43.642   3.377  18.973  0.00  0.00    -0.001 A 
ATOM    114  CE2 TYR A  10      44.508   3.476  17.895  0.00  0.00    +0.036 A 
ATOM    115  CZ  TYR A  10      44.148   2.935  16.676  0.00  0.00    +0.134 A 
ATOM    116  CE1 TYR A  10      42.933   2.296  16.529  0.00  0.00    +0.036 A 
ATOM    117  CD1 TYR A  10      42.073   2.203  17.614  0.00  0.00    -0.001 A 
BRANCH 115 118
ATOM    118  OH  TYR A  10      45.000   3.040  15.599  0.00  0.00    -0.506 OA
ATOM    119  HH  TYR A  10      44.590   2.602  14.811  0.00  0.00    +0.292 HD
ENDBRANCH 115 118
ENDBRANCH 111 112
ENDBRANCH  78 111
ENDBRANCH  76  78
ENDBRANCH  73  74
BRANCH  73 120
ATOM    120  CB  LEU A   9      37.486   0.506  22.920  0.00  0.00    +0.029 C 
BRANCH 120 121
ATOM    121  CG  LEU A   9      36.346   0.431  23.947  0.00  0.00    +0.002 C 
ATOM    122  CD2 LEU A   9      36.269  -0.977  24.535  0.00  0.00    +0.000 C 
ATOM    123  CD1 LEU A   9      35.027   0.818  23.304  0.00  0.00    +0.000 C 
ENDBRANCH 120 121
ENDBRANCH  73 120
ENDBRANCH  71  73
ENDBRANCH  68  69
BRANCH  68 124
ATOM    124  CB  HIS A   8      40.138   2.641  27.164  0.00  0.00    +0.076 C 
BRANCH 124 125
ATOM    125  CG  HIS A   8      40.556   3.746  28.083  0.00  0.00    +0.082 A 
ATOM    126  ND1 HIS A   8      39.658   4.624  28.653  0.00  0.00    -0.227 NA
ATOM    127  CE1 HIS A   8      40.312   5.494  29.402  0.00  0.00    +0.199 A 
ATOM    128  NE2 HIS A   8      41.601   5.212  29.340  0.00  0.00    -0.221 NA
ATOM    129  CD2 HIS A   8      41.781   4.123  28.522  0.00  0.00    +0.115 A 
ENDBRANCH 124 125
ENDBRANCH  68 124
ENDBRANCH   2  68
TORSDOF 61
REMARK  Name = ../refined-set-2016/2ayr/2ayr_pocket.pdb
REMARK  258 active torsions:
REMARK  status: ('A' for Active; 'I' for Inactive)
REMARK    1  A    between atoms: _1  and  _3
REMARK    2  A    between atoms: _3  and  _4
REMARK    3  A    between atoms: _3  and  _6
REMARK    4  A    between atoms: _6  and  _7
REMARK    5  A    between atoms: _10  and  _12
REMARK    6  A    between atoms: _12  and  _13
REMARK    7  A    between atoms: _12  and  _15
REMARK    8  A    between atoms: _15  and  _16
REMARK    9  A    between atoms: _16  and  _17
REMARK   10  A    between atoms: _19  and  _21
REMARK   11  A    between atoms: _21  and  _22
REMARK   12  A    between atoms: _21  and  _24
REMARK   13  A    between atoms: _24  and  _25
REMARK   14  A    between atoms: _25  and  _26
REMARK   15  A    between atoms: _28  and  _30
REMARK   16  A    between atoms: _30  and  _31
REMARK   17  A    between atoms: _33  and  _35
REMARK   18  A    between atoms: _35  and  _36
REMARK   19  A    between atoms: _35  and  _38
REMARK   20  A    between atoms: _38  and  _39
REMARK   21  A    between atoms: _42  and  _44
REMARK   22  A    between atoms: _44  and  _45
REMARK   23  A    between atoms: _44  and  _47
REMARK   24  A    between atoms: _47  and  _48
REMARK   25  A    between atoms: _51  and  _53
REMARK   26  A    between atoms: _53  and  _54
REMARK   27  A    between atoms: _53  and  _56
REMARK   28  A    between atoms: _56  and  _57
REMARK   29  A    between atoms: _60  and  _62
REMARK   30  A    between atoms: _62  and  _63
REMARK   31  A    between atoms: _62  and  _65
REMARK   32  A    between atoms: _65  and  _66
REMARK   33  A    between atoms: _71  and  _73
REMARK   34  A    between atoms: _73  and  _74
REMARK   35  A    between atoms: _73  and  _76
REMARK   36  A    between atoms: _76  and  _77
REMARK   37  A    between atoms: _80  and  _82
REMARK   38  A    between atoms: _82  and  _83
REMARK   39  A    between atoms: _86  and  _88
REMARK   40  A    between atoms: _88  and  _89
REMARK   41  A    between atoms: _88  and  _91
REMARK   42  A    between atoms: _91  and  _92
REMARK   43  A    between atoms: _95  and  _97
REMARK   44  A    between atoms: _97  and  _98
REMARK   45  A    between atoms: _97  and  _100
REMARK   46  A    between atoms: _100  and  _101
REMARK   47  A    between atoms: _101  and  _102
REMARK   48  A    between atoms: _102  and  _103
REMARK   49  A    between atoms: _112  and  _114
REMARK   50  A    between atoms: _114  and  _115
REMARK   51  A    between atoms: _114  and  _117
REMARK   52  A    between atoms: _117  and  _118
REMARK   53  A    between atoms: _118  and  _119
REMARK   54  A    between atoms: _122  and  _124
REMARK   55  A    between atoms: _124  and  _125
REMARK   56  A    between atoms: _124  and  _127
REMARK   57  A    between atoms: _127  and  _128
REMARK   58  A    between atoms: _131  and  _133
REMARK   59  A    between atoms: _133  and  _134
REMARK   60  A    between atoms: _133  and  _136
REMARK   61  A    between atoms: _139  and  _141
REMARK   62  A    between atoms: _141  and  _142
REMARK   63  A    between atoms: _141  and  _144
REMARK   64  A    between atoms: _144  and  _145
REMARK   65  A    between atoms: _145  and  _146
REMARK   66  A    between atoms: _148  and  _150
REMARK   67  A    between atoms: _150  and  _151
REMARK   68  A    between atoms: _150  and  _153
REMARK   69  A    between atoms: _153  and  _154
REMARK   70  A    between atoms: _164  and  _166
REMARK   71  A    between atoms: _166  and  _167
REMARK   72  A    between atoms: _166  and  _169
REMARK   73  A    between atoms: _169  and  _170
REMARK   74  A    between atoms: _173  and  _175
REMARK   75  A    between atoms: _175  and  _176
REMARK   76  A    between atoms: _175  and  _178
REMARK   77  A    between atoms: _178  and  _179
REMARK   78  A    between atoms: _179  and  _180
REMARK   79  A    between atoms: _183  and  _185
REMARK   80  A    between atoms: _185  and  _186
REMARK   81  A    between atoms: _185  and  _188
REMARK   82  A    between atoms: _188  and  _189
REMARK   83  A    between atoms: _192  and  _194
REMARK   84  A    between atoms: _194  and  _195
REMARK   85  A    between atoms: _194  and  _197
REMARK   86  A    between atoms: _197  and  _198
REMARK   87  A    between atoms: _201  and  _203
REMARK   88  A    between atoms: _203  and  _204
REMARK   89  A    between atoms: _203  and  _206
REMARK   90  A    between atoms: _206  and  _207
REMARK   91  A    between atoms: _207  and  _208
REMARK   92  A    between atoms: _210  and  _212
REMARK   93  A    between atoms: _212  and  _213
REMARK   94  A    between atoms: _212  and  _215
REMARK   95  A    between atoms: _215  and  _216
REMARK   96  A    between atoms: _219  and  _221
REMARK   97  A    between atoms: _221  and  _222
REMARK   98  A    between atoms: _224  and  _226
REMARK   99  A    between atoms: _226  and  _227
REMARK  100  A    between atoms: _226  and  _229
REMARK  101  A    between atoms: _229  and  _230
REMARK  102  A    between atoms: _233  and  _235
REMARK  103  A    between atoms: _235  and  _236
REMARK  104  A    between atoms: _235  and  _238
REMARK  105  A    between atoms: _241  and  _243
REMARK  106  A    between atoms: _243  and  _244
REMARK  107  A    between atoms: _243  and  _246
REMARK  108  A    between atoms: _246  and  _247
REMARK  109  A    between atoms: _247  and  _248
REMARK  110  A    between atoms: _248  and  _249
REMARK  111  A    between atoms: _258  and  _260
REMARK  112  A    between atoms: _260  and  _261
REMARK  113  A    between atoms: _260  and  _263
REMARK  114  A    between atoms: _263  and  _264
REMARK  115  A    between atoms: _266  and  _268
REMARK  116  A    between atoms: _268  and  _269
REMARK  117  A    between atoms: _268  and  _271
REMARK  118  A    between atoms: _271  and  _272
REMARK  119  A    between atoms: _275  and  _277
REMARK  120  A    between atoms: _277  and  _278
REMARK  121  A    between atoms: _277  and  _280
REMARK  122  A    between atoms: _280  and  _281
REMARK  123  A    between atoms: _284  and  _286
REMARK  124  A    between atoms: _286  and  _287
REMARK  125  A    between atoms: _286  and  _289
REMARK  126  A    between atoms: _289  and  _290
REMARK  127  A    between atoms: _296  and  _298
REMARK  128  A    between atoms: _298  and  _299
REMARK  129  A    between atoms: _302  and  _304
REMARK  130  A    between atoms: _304  and  _305
REMARK  131  A    between atoms: _304  and  _307
REMARK  132  A    between atoms: _307  and  _308
REMARK  133  A    between atoms: _311  and  _313
REMARK  134  A    between atoms: _313  and  _314
REMARK  135  A    between atoms: _316  and  _318
REMARK  136  A    between atoms: _318  and  _319
REMARK  137  A    between atoms: _318  and  _321
REMARK  138  A    between atoms: _324  and  _326
REMARK  139  A    between atoms: _326  and  _327
REMARK  140  A    between atoms: _326  and  _329
REMARK  141  A    between atoms: _329  and  _330
REMARK  142  A    between atoms: _330  and  _331
REMARK  143  A    between atoms: _334  and  _336
REMARK  144  A    between atoms: _336  and  _337
REMARK  145  A    between atoms: _339  and  _341
REMARK  146  A    between atoms: _341  and  _342
REMARK  147  A    between atoms: _341  and  _344
REMARK  148  A    between atoms: _344  and  _345
REMARK  149  A    between atoms: _345  and  _346
REMARK  150  A    between atoms: _348  and  _350
REMARK  151  A    between atoms: _350  and  _351
REMARK  152  A    between atoms: _350  and  _353
REMARK  153  A    between atoms: _356  and  _358
REMARK  154  A    between atoms: _358  and  _359
REMARK  155  A    between atoms: _358  and  _361
REMARK  156  A    between atoms: _361  and  _362
REMARK  157  A    between atoms: _362  and  _363
REMARK  158  A    between atoms: _366  and  _368
REMARK  159  A    between atoms: _368  and  _369
REMARK  160  A    between atoms: _368  and  _371
REMARK  161  A    between atoms: _371  and  _372
REMARK  162  A    between atoms: _375  and  _377
REMARK  163  A    between atoms: _377  and  _378
REMARK  164  A    between atoms: _377  and  _380
REMARK  165  A    between atoms: _380  and  _381
REMARK  166  A    between atoms: _387  and  _389
REMARK  167  A    between atoms: _389  and  _390
REMARK  168  A    between atoms: _389  and  _392
REMARK  169  A    between atoms: _392  and  _393
REMARK  170  A    between atoms: _396  and  _398
REMARK  171  A    between atoms: _398  and  _399
REMARK  172  A    between atoms: _398  and  _401
REMARK  173  A    between atoms: _401  and  _402
REMARK  174  A    between atoms: _402  and  _403
REMARK  175  A    between atoms: _405  and  _407
REMARK  176  A    between atoms: _407  and  _408
REMARK  177  A    between atoms: _407  and  _410
REMARK  178  A    between atoms: _410  and  _411
REMARK  179  A    between atoms: _413  and  _415
REMARK  180  A    between atoms: _415  and  _416
REMARK  181  A    between atoms: _415  and  _418
REMARK  182  A    between atoms: _418  and  _419
REMARK  183  A    between atoms: _424  and  _426
REMARK  184  A    between atoms: _426  and  _427
REMARK  185  A    between atoms: _426  and  _429
REMARK  186  A    between atoms: _429  and  _430
REMARK  187  A    between atoms: _430  and  _431
REMARK  188  A    between atoms: _431  and  _432
REMARK  189  A    between atoms: _432  and  _433
REMARK  190  A    between atoms: _437  and  _439
REMARK  191  A    between atoms: _439  and  _440
REMARK  192  A    between atoms: _442  and  _444
REMARK  193  A    between atoms: _444  and  _445
REMARK  194  A    between atoms: _444  and  _447
REMARK  195  A    between atoms: _447  and  _448
REMARK  196  A    between atoms: _448  and  _449
REMARK  197  A    between atoms: _451  and  _453
REMARK  198  A    between atoms: _453  and  _454
REMARK  199  A    between atoms: _453  and  _456
REMARK  200  A    between atoms: _456  and  _457
REMARK  201  A    between atoms: _457  and  _458
REMARK  202  A    between atoms: _461  and  _463
REMARK  203  A    between atoms: _463  and  _464
REMARK  204  A    between atoms: _463  and  _466
REMARK  205  A    between atoms: _466  and  _467
REMARK  206  A    between atoms: _472  and  _474
REMARK  207  A    between atoms: _474  and  _475
REMARK  208  A    between atoms: _474  and  _477
REMARK  209  A    between atoms: _477  and  _478
REMARK  210  A    between atoms: _481  and  _483
REMARK  211  A    between atoms: _483  and  _484
REMARK  212  A    between atoms: _483  and  _486
REMARK  213  A    between atoms: _486  and  _487
REMARK  214  A    between atoms: _492  and  _493
REMARK  215  A    between atoms: _495  and  _497
REMARK  216  A    between atoms: _497  and  _498
REMARK  217  A    between atoms: _497  and  _500
REMARK  218  A    between atoms: _500  and  _501
REMARK  219  A    between atoms: _503  and  _505
REMARK  220  A    between atoms: _505  and  _506
REMARK  221  A    between atoms: _505  and  _508
REMARK  222  A    between atoms: _508  and  _509
REMARK  223  A    between atoms: _509  and  _510
REMARK  224  A    between atoms: _512  and  _514
REMARK  225  A    between atoms: _514  and  _515
REMARK  226  A    between atoms: _514  and  _517
REMARK  227  A    between atoms: _517  and  _518
REMARK  228  A    between atoms: _518  and  _519
REMARK  229  A    between atoms: _519  and  _520
REMARK  230  A    between atoms: _520  and  _521
REMARK  231  A    between atoms: _525  and  _527
REMARK  232  A    between atoms: _527  and  _528
REMARK  233  A    between atoms: _527  and  _530
REMARK  234  A    between atoms: _530  and  _531
REMARK  235  A    between atoms: _531  and  _532
REMARK  236  A    between atoms: _532  and  _533
REMARK  237  A    between atoms: _533  and  _534
REMARK  238  A    between atoms: _538  and  _540
REMARK  239  A    between atoms: _540  and  _541
REMARK  240  A    between atoms: _540  and  _543
REMARK  241  A    between atoms: _547  and  _548
REMARK  242  A    between atoms: _553  and  _555
REMARK  243  A    between atoms: _555  and  _556
REMARK  244  A    between atoms: _555  and  _558
REMARK  245  A    between atoms: _558  and  _559
REMARK  246  A    between atoms: _562  and  _564
REMARK  247  A    between atoms: _564  and  _565
REMARK  248  A    between atoms: _564  and  _567
REMARK  249  A    between atoms: _567  and  _568
REMARK  250  A    between atoms: _571  and  _573
REMARK  251  A    between atoms: _573  and  _574
REMARK  252  A    between atoms: _573  and  _576
REMARK  253  A    between atoms: _576  and  _577
REMARK  254  A    between atoms: _580  and  _582
REMARK  255  A    between atoms: _582  and  _583
REMARK  256  A    between atoms: _582  and  _585
REMARK  257  A    between atoms: _585  and  _586
REMARK  258  A    between atoms: _586  and  _587
REMARK                            x       y       z     vdW  Elec       q    Type
REMARK                         _______ _______ _______ _____ _____    ______ ____
ROOT
ATOM      1  CG  LYS A   1      39.670  -7.958  17.920  0.00  0.00    -0.000 C 
ENDROOT
BRANCH   1   2
ATOM      2  CB  LYS A   1      40.394  -8.306  16.635  0.00  0.00    +0.025 C 
BRANCH   2   3
ATOM      3  CA  LYS A   1      41.911  -8.141  16.671  0.00  0.00    +0.133 C 
BRANCH   3   4
ATOM      4  N   LYS A   1      42.270  -6.832  17.204  0.00  0.00    -0.239 NA
ATOM      5  H   LYS A   1      41.512  -6.159  17.436  0.00  0.00    +0.142 HD
ENDBRANCH   3   4
BRANCH   3   6
ATOM      6  C   LYS A   1      42.454  -8.361  15.262  0.00  0.00    +0.224 C 
ATOM      7  O   LYS A   1      42.433  -9.483  14.757  0.00  0.00    -0.287 OA
ENDBRANCH   3   6
ENDBRANCH   2   3
ENDBRANCH   1   2
BRANCH   1   8
ATOM      8  CD  LYS A   1      38.171  -8.081  17.701  0.00  0.00    -0.024 C 
BRANCH   8   9
ATOM      9  CE  LYS A   1      37.380  -7.791  18.958  0.00  0.00    -0.086 C 
BRANCH   9  10
ATOM     10  NZ  LYS A   1      35.944  -8.087  18.731  0.00  0.00    +0.380 N 
ATOM     11  HZ1 LYS A   1      35.408  -7.885  19.599  0.00  0.00    -0.089 HD
ATOM     12  HZ2 LYS A   1      35.834  -9.090  18.479  0.00  0.00    -0.089 HD
ATOM     13  HZ3 LYS A   1      35.587  -7.493  17.956  0.00  0.00    -0.089 HD
ENDBRANCH   9  10
ENDBRANCH   8   9
ENDBRANCH   1   8
TORSDOF 7
REMARK  Name = ../refined-set-2016/2ayr/2ayr_pocket.pdb
REMARK  258 active torsions:
REMARK  status: ('A' for Active; 'I' for Inactive)
REMARK    1  A    between atoms: _1  and  _3
REMARK    2  A    between atoms: _3  and  _4
REMARK    3  A    between atoms: _3  and  _6
REMARK    4  A    between atoms: _6  and  _7
REMARK    5  A    between atoms: _10  and  _12
REMARK    6  A    between atoms: _12  and  _13
REMARK    7  A    between atoms: _12  and  _15
REMARK    8  A    between atoms: _15  and  _16
REMARK    9  A    between atoms: _16  and  _17
REMARK   10  A    between atoms: _19  and  _21
REMARK   11  A    between atoms: _21  and  _22
REMARK   12  A    between atoms: _21  and  _24
REMARK   13  A    between atoms: _24  and  _25
REMARK   14  A    between atoms: _25  and  _26
REMARK   15  A    between atoms: _28  and  _30
REMARK   16  A    between atoms: _30  and  _31
REMARK   17  A    between atoms: _33  and  _35
REMARK   18  A    between atoms: _35  and  _36
REMARK   19  A    between atoms: _35  and  _38
REMARK   20  A    between atoms: _38  and  _39
REMARK   21  A    between atoms: _42  and  _44
REMARK   22  A    between atoms: _44  and  _45
REMARK   23  A    between atoms: _44  and  _47
REMARK   24  A    between atoms: _47  and  _48
REMARK   25  A    between atoms: _51  and  _53
REMARK   26  A    between atoms: _53  and  _54
REMARK   27  A    between atoms: _53  and  _56
REMARK   28  A    between atoms: _56  and  _57
REMARK   29  A    between atoms: _60  and  _62
REMARK   30  A    between atoms: _62  and  _63
REMARK   31  A    between atoms: _62  and  _65
REMARK   32  A    between atoms: _65  and  _66
REMARK   33  A    between atoms: _71  and  _73
REMARK   34  A    between atoms: _73  and  _74
REMARK   35  A    between atoms: _73  and  _76
REMARK   36  A    between atoms: _76  and  _77
REMARK   37  A    between atoms: _80  and  _82
REMARK   38  A    between atoms: _82  and  _83
REMARK   39  A    between atoms: _86  and  _88
REMARK   40  A    between atoms: _88  and  _89
REMARK   41  A    between atoms: _88  and  _91
REMARK   42  A    between atoms: _91  and  _92
REMARK   43  A    between atoms: _95  and  _97
REMARK   44  A    between atoms: _97  and  _98
REMARK   45  A    between atoms: _97  and  _100
REMARK   46  A    between atoms: _100  and  _101
REMARK   47  A    between atoms: _101  and  _102
REMARK   48  A    between atoms: _102  and  _103
REMARK   49  A    between atoms: _112  and  _114
REMARK   50  A    between atoms: _114  and  _115
REMARK   51  A    between atoms: _114  and  _117
REMARK   52  A    between atoms: _117  and  _118
REMARK   53  A    between atoms: _118  and  _119
REMARK   54  A    between atoms: _122  and  _124
REMARK   55  A    between atoms: _124  and  _125
REMARK   56  A    between atoms: _124  and  _127
REMARK   57  A    between atoms: _127  and  _128
REMARK   58  A    between atoms: _131  and  _133
REMARK   59  A    between atoms: _133  and  _134
REMARK   60  A    between atoms: _133  and  _136
REMARK   61  A    between atoms: _139  and  _141
REMARK   62  A    between atoms: _141  and  _142
REMARK   63  A    between atoms: _141  and  _144
REMARK   64  A    between atoms: _144  and  _145
REMARK   65  A    between atoms: _145  and  _146
REMARK   66  A    between atoms: _148  and  _150
REMARK   67  A    between atoms: _150  and  _151
REMARK   68  A    between atoms: _150  and  _153
REMARK   69  A    between atoms: _153  and  _154
REMARK   70  A    between atoms: _164  and  _166
REMARK   71  A    between atoms: _166  and  _167
REMARK   72  A    between atoms: _166  and  _169
REMARK   73  A    between atoms: _169  and  _170
REMARK   74  A    between atoms: _173  and  _175
REMARK   75  A    between atoms: _175  and  _176
REMARK   76  A    between atoms: _175  and  _178
REMARK   77  A    between atoms: _178  and  _179
REMARK   78  A    between atoms: _179  and  _180
REMARK   79  A    between atoms: _183  and  _185
REMARK   80  A    between atoms: _185  and  _186
REMARK   81  A    between atoms: _185  and  _188
REMARK   82  A    between atoms: _188  and  _189
REMARK   83  A    between atoms: _192  and  _194
REMARK   84  A    between atoms: _194  and  _195
REMARK   85  A    between atoms: _194  and  _197
REMARK   86  A    between atoms: _197  and  _198
REMARK   87  A    between atoms: _201  and  _203
REMARK   88  A    between atoms: _203  and  _204
REMARK   89  A    between atoms: _203  and  _206
REMARK   90  A    between atoms: _206  and  _207
REMARK   91  A    between atoms: _207  and  _208
REMARK   92  A    between atoms: _210  and  _212
REMARK   93  A    between atoms: _212  and  _213
REMARK   94  A    between atoms: _212  and  _215
REMARK   95  A    between atoms: _215  and  _216
REMARK   96  A    between atoms: _219  and  _221
REMARK   97  A    between atoms: _221  and  _222
REMARK   98  A    between atoms: _224  and  _226
REMARK   99  A    between atoms: _226  and  _227
REMARK  100  A    between atoms: _226  and  _229
REMARK  101  A    between atoms: _229  and  _230
REMARK  102  A    between atoms: _233  and  _235
REMARK  103  A    between atoms: _235  and  _236
REMARK  104  A    between atoms: _235  and  _238
REMARK  105  A    between atoms: _241  and  _243
REMARK  106  A    between atoms: _243  and  _244
REMARK  107  A    between atoms: _243  and  _246
REMARK  108  A    between atoms: _246  and  _247
REMARK  109  A    between atoms: _247  and  _248
REMARK  110  A    between atoms: _248  and  _249
REMARK  111  A    between atoms: _258  and  _260
REMARK  112  A    between atoms: _260  and  _261
REMARK  113  A    between atoms: _260  and  _263
REMARK  114  A    between atoms: _263  and  _264
REMARK  115  A    between atoms: _266  and  _268
REMARK  116  A    between atoms: _268  and  _269
REMARK  117  A    between atoms: _268  and  _271
REMARK  118  A    between atoms: _271  and  _272
REMARK  119  A    between atoms: _275  and  _277
REMARK  120  A    between atoms: _277  and  _278
REMARK  121  A    between atoms: _277  and  _280
REMARK  122  A    between atoms: _280  and  _281
REMARK  123  A    between atoms: _284  and  _286
REMARK  124  A    between atoms: _286  and  _287
REMARK  125  A    between atoms: _286  and  _289
REMARK  126  A    between atoms: _289  and  _290
REMARK  127  A    between atoms: _296  and  _298
REMARK  128  A    between atoms: _298  and  _299
REMARK  129  A    between atoms: _302  and  _304
REMARK  130  A    between atoms: _304  and  _305
REMARK  131  A    between atoms: _304  and  _307
REMARK  132  A    between atoms: _307  and  _308
REMARK  133  A    between atoms: _311  and  _313
REMARK  134  A    between atoms: _313  and  _314
REMARK  135  A    between atoms: _316  and  _318
REMARK  136  A    between atoms: _318  and  _319
REMARK  137  A    between atoms: _318  and  _321
REMARK  138  A    between atoms: _324  and  _326
REMARK  139  A    between atoms: _326  and  _327
REMARK  140  A    between atoms: _326  and  _329
REMARK  141  A    between atoms: _329  and  _330
REMARK  142  A    between atoms: _330  and  _331
REMARK  143  A    between atoms: _334  and  _336
REMARK  144  A    between atoms: _336  and  _337
REMARK  145  A    between atoms: _339  and  _341
REMARK  146  A    between atoms: _341  and  _342
REMARK  147  A    between atoms: _341  and  _344
REMARK  148  A    between atoms: _344  and  _345
REMARK  149  A    between atoms: _345  and  _346
REMARK  150  A    between atoms: _348  and  _350
REMARK  151  A    between atoms: _350  and  _351
REMARK  152  A    between atoms: _350  and  _353
REMARK  153  A    between atoms: _356  and  _358
REMARK  154  A    between atoms: _358  and  _359
REMARK  155  A    between atoms: _358  and  _361
REMARK  156  A    between atoms: _361  and  _362
REMARK  157  A    between atoms: _362  and  _363
REMARK  158  A    between atoms: _366  and  _368
REMARK  159  A    between atoms: _368  and  _369
REMARK  160  A    between atoms: _368  and  _371
REMARK  161  A    between atoms: _371  and  _372
REMARK  162  A    between atoms: _375  and  _377
REMARK  163  A    between atoms: _377  and  _378
REMARK  164  A    between atoms: _377  and  _380
REMARK  165  A    between atoms: _380  and  _381
REMARK  166  A    between atoms: _387  and  _389
REMARK  167  A    between atoms: _389  and  _390
REMARK  168  A    between atoms: _389  and  _392
REMARK  169  A    between atoms: _392  and  _393
REMARK  170  A    between atoms: _396  and  _398
REMARK  171  A    between atoms: _398  and  _399
REMARK  172  A    between atoms: _398  and  _401
REMARK  173  A    between atoms: _401  and  _402
REMARK  174  A    between atoms: _402  and  _403
REMARK  175  A    between atoms: _405  and  _407
REMARK  176  A    between atoms: _407  and  _408
REMARK  177  A    between atoms: _407  and  _410
REMARK  178  A    between atoms: _410  and  _411
REMARK  179  A    between atoms: _413  and  _415
REMARK  180  A    between atoms: _415  and  _416
REMARK  181  A    between atoms: _415  and  _418
REMARK  182  A    between atoms: _418  and  _419
REMARK  183  A    between atoms: _424  and  _426
REMARK  184  A    between atoms: _426  and  _427
REMARK  185  A    between atoms: _426  and  _429
REMARK  186  A    between atoms: _429  and  _430
REMARK  187  A    between atoms: _430  and  _431
REMARK  188  A    between atoms: _431  and  _432
REMARK  189  A    between atoms: _432  and  _433
REMARK  190  A    between atoms: _437  and  _439
REMARK  191  A    between atoms: _439  and  _440
REMARK  192  A    between atoms: _442  and  _444
REMARK  193  A    between atoms: _444  and  _445
REMARK  194  A    between atoms: _444  and  _447
REMARK  195  A    between atoms: _447  and  _448
REMARK  196  A    between atoms: _448  and  _449
REMARK  197  A    between atoms: _451  and  _453
REMARK  198  A    between atoms: _453  and  _454
REMARK  199  A    between atoms: _453  and  _456
REMARK  200  A    between atoms: _456  and  _457
REMARK  201  A    between atoms: _457  and  _458
REMARK  202  A    between atoms: _461  and  _463
REMARK  203  A    between atoms: _463  and  _464
REMARK  204  A    between atoms: _463  and  _466
REMARK  205  A    between atoms: _466  and  _467
REMARK  206  A    between atoms: _472  and  _474
REMARK  207  A    between atoms: _474  and  _475
REMARK  208  A    between atoms: _474  and  _477
REMARK  209  A    between atoms: _477  and  _478
REMARK  210  A    between atoms: _481  and  _483
REMARK  211  A    between atoms: _483  and  _484
REMARK  212  A    between atoms: _483  and  _486
REMARK  213  A    between atoms: _486  and  _487
REMARK  214  A    between atoms: _492  and  _493
REMARK  215  A    between atoms: _495  and  _497
REMARK  216  A    between atoms: _497  and  _498
REMARK  217  A    between atoms: _497  and  _500
REMARK  218  A    between atoms: _500  and  _501
REMARK  219  A    between atoms: _503  and  _505
REMARK  220  A    between atoms: _505  and  _506
REMARK  221  A    between atoms: _505  and  _508
REMARK  222  A    between atoms: _508  and  _509
REMARK  223  A    between atoms: _509  and  _510
REMARK  224  A    between atoms: _512  and  _514
REMARK  225  A    between atoms: _514  and  _515
REMARK  226  A    between atoms: _514  and  _517
REMARK  227  A    between atoms: _517  and  _518
REMARK  228  A    between atoms: _518  and  _519
REMARK  229  A    between atoms: _519  and  _520
REMARK  230  A    between atoms: _520  and  _521
REMARK  231  A    between atoms: _525  and  _527
REMARK  232  A    between atoms: _527  and  _528
REMARK  233  A    between atoms: _527  and  _530
REMARK  234  A    between atoms: _530  and  _531
REMARK  235  A    between atoms: _531  and  _532
REMARK  236  A    between atoms: _532  and  _533
REMARK  237  A    between atoms: _533  and  _534
REMARK  238  A    between atoms: _538  and  _540
REMARK  239  A    between atoms: _540  and  _541
REMARK  240  A    between atoms: _540  and  _543
REMARK  241  A    between atoms: _547  and  _548
REMARK  242  A    between atoms: _553  and  _555
REMARK  243  A    between atoms: _555  and  _556
REMARK  244  A    between atoms: _555  and  _558
REMARK  245  A    between atoms: _558  and  _559
REMARK  246  A    between atoms: _562  and  _564
REMARK  247  A    between atoms: _564  and  _565
REMARK  248  A    between atoms: _564  and  _567
REMARK  249  A    between atoms: _567  and  _568
REMARK  250  A    between atoms: _571  and  _573
REMARK  251  A    between atoms: _573  and  _574
REMARK  252  A    between atoms: _573  and  _576
REMARK  253  A    between atoms: _576  and  _577
REMARK  254  A    between atoms: _580  and  _582
REMARK  255  A    between atoms: _582  and  _583
REMARK  256  A    between atoms: _582  and  _585
REMARK  257  A    between atoms: _585  and  _586
REMARK  258  A    between atoms: _586  and  _587
REMARK                            x       y       z     vdW  Elec       q    Type
REMARK                         _______ _______ _______ _____ _____    ______ ____
ROOT
ATOM      1  C   VAL A   1      36.757  -5.429  10.373  0.00  0.00    +0.241 C 
ATOM      2  O   VAL A   1      36.253  -5.415  11.495  0.00  0.00    -0.273 OA
ATOM      3  N   PRO A   2      37.063  -4.301   9.710  0.00  0.00    -0.272 N 
ATOM      4  CA  PRO A   2      36.789  -2.953  10.218  0.00  0.00    +0.152 C 
ATOM      5  CB  PRO A   2      37.327  -2.030   9.122  0.00  0.00    +0.031 C 
ATOM      6  CG  PRO A   2      37.393  -2.873   7.901  0.00  0.00    +0.024 C 
ATOM      7  CD  PRO A   2      37.634  -4.279   8.354  0.00  0.00    +0.094 C 
ENDROOT
BRANCH   4   8
ATOM      8  C   PRO A   2      35.305  -2.731  10.490  0.00  0.00    +0.241 C 
ATOM      9  N   LEU A   3      35.017  -1.960  11.531  0.00  0.00    -0.298 N 
ATOM     10  H   LEU A   3      35.793  -1.497  12.045  0.00  0.00    +0.150 HD
ATOM     11  O   PRO A   2      34.445  -3.250   9.776  0.00  0.00    -0.273 OA
BRANCH   9  12
ATOM     12  CA  LEU A   3      33.649  -1.743  11.975  0.00  0.00    +0.137 C 
BRANCH  12  13
ATOM     13  C   LEU A   3      32.749  -1.272  10.834  0.00  0.00    +0.227 C 
ATOM     14  O   LEU A   3      31.615  -1.724  10.713  0.00  0.00    -0.286 OA
ENDBRANCH  12  13
BRANCH  12  15
ATOM     15  CB  LEU A   3      33.626  -0.722  13.117  0.00  0.00    +0.028 C 
BRANCH  15  16
ATOM     16  CG  LEU A   3      32.250  -0.433  13.713  0.00  0.00    +0.002 C 
ATOM     17  CD2 LEU A   3      32.378   0.519  14.896  0.00  0.00    +0.000 C 
ATOM     18  CD1 LEU A   3      31.602  -1.741  14.132  0.00  0.00    +0.000 C 
ENDBRANCH  15  16
ENDBRANCH  12  15
ENDBRANCH   9  12
ENDBRANCH   4   8
BRANCH   1  19
ATOM     19  CA  VAL A   1      37.052  -6.750   9.666  0.00  0.00    +0.145 C 
BRANCH  19  20
ATOM     20  CB  VAL A   1      35.712  -7.463   9.373  0.00  0.00    +0.025 C 
ATOM     21  CG2 VAL A   1      35.978  -8.845   8.794  0.00  0.00    +0.002 C 
ATOM     22  CG1 VAL A   1      34.862  -6.631   8.423  0.00  0.00    +0.002 C 
ENDBRANCH  19  20
BRANCH  19  23
ATOM     23  N   VAL A   1      37.917  -7.613  10.459  0.00  0.00    -0.238 NA
ATOM     24  H   VAL A   1      37.577  -8.564  10.707  0.00  0.00    +0.142 HD
ENDBRANCH  19  23
ENDBRANCH   1  19
TORSDOF 8
REMARK  Name = ../refined-set-2016/2ayr/2ayr_pocket.pdb
REMARK  258 active torsions:
REMARK  status: ('A' for Active; 'I' for Inactive)
REMARK    1  A    between atoms: _1  and  _3
REMARK    2  A    between atoms: _3  and  _4
REMARK    3  A    between atoms: _3  and  _6
REMARK    4  A    between atoms: _6  and  _7
REMARK    5  A    between atoms: _10  and  _12
REMARK    6  A    between atoms: _12  and  _13
REMARK    7  A    between atoms: _12  and  _15
REMARK    8  A    between atoms: _15  and  _16
REMARK    9  A    between atoms: _16  and  _17
REMARK   10  A    between atoms: _19  and  _21
REMARK   11  A    between atoms: _21  and  _22
REMARK   12  A    between atoms: _21  and  _24
REMARK   13  A    between atoms: _24  and  _25
REMARK   14  A    between atoms: _25  and  _26
REMARK   15  A    between atoms: _28  and  _30
REMARK   16  A    between atoms: _30  and  _31
REMARK   17  A    between atoms: _33  and  _35
REMARK   18  A    between atoms: _35  and  _36
REMARK   19  A    between atoms: _35  and  _38
REMARK   20  A    between atoms: _38  and  _39
REMARK   21  A    between atoms: _42  and  _44
REMARK   22  A    between atoms: _44  and  _45
REMARK   23  A    between atoms: _44  and  _47
REMARK   24  A    between atoms: _47  and  _48
REMARK   25  A    between atoms: _51  and  _53
REMARK   26  A    between atoms: _53  and  _54
REMARK   27  A    between atoms: _53  and  _56
REMARK   28  A    between atoms: _56  and  _57
REMARK   29  A    between atoms: _60  and  _62
REMARK   30  A    between atoms: _62  and  _63
REMARK   31  A    between atoms: _62  and  _65
REMARK   32  A    between atoms: _65  and  _66
REMARK   33  A    between atoms: _71  and  _73
REMARK   34  A    between atoms: _73  and  _74
REMARK   35  A    between atoms: _73  and  _76
REMARK   36  A    between atoms: _76  and  _77
REMARK   37  A    between atoms: _80  and  _82
REMARK   38  A    between atoms: _82  and  _83
REMARK   39  A    between atoms: _86  and  _88
REMARK   40  A    between atoms: _88  and  _89
REMARK   41  A    between atoms: _88  and  _91
REMARK   42  A    between atoms: _91  and  _92
REMARK   43  A    between atoms: _95  and  _97
REMARK   44  A    between atoms: _97  and  _98
REMARK   45  A    between atoms: _97  and  _100
REMARK   46  A    between atoms: _100  and  _101
REMARK   47  A    between atoms: _101  and  _102
REMARK   48  A    between atoms: _102  and  _103
REMARK   49  A    between atoms: _112  and  _114
REMARK   50  A    between atoms: _114  and  _115
REMARK   51  A    between atoms: _114  and  _117
REMARK   52  A    between atoms: _117  and  _118
REMARK   53  A    between atoms: _118  and  _119
REMARK   54  A    between atoms: _122  and  _124
REMARK   55  A    between atoms: _124  and  _125
REMARK   56  A    between atoms: _124  and  _127
REMARK   57  A    between atoms: _127  and  _128
REMARK   58  A    between atoms: _131  and  _133
REMARK   59  A    between atoms: _133  and  _134
REMARK   60  A    between atoms: _133  and  _136
REMARK   61  A    between atoms: _139  and  _141
REMARK   62  A    between atoms: _141  and  _142
REMARK   63  A    between atoms: _141  and  _144
REMARK   64  A    between atoms: _144  and  _145
REMARK   65  A    between atoms: _145  and  _146
REMARK   66  A    between atoms: _148  and  _150
REMARK   67  A    between atoms: _150  and  _151
REMARK   68  A    between atoms: _150  and  _153
REMARK   69  A    between atoms: _153  and  _154
REMARK   70  A    between atoms: _164  and  _166
REMARK   71  A    between atoms: _166  and  _167
REMARK   72  A    between atoms: _166  and  _169
REMARK   73  A    between atoms: _169  and  _170
REMARK   74  A    between atoms: _173  and  _175
REMARK   75  A    between atoms: _175  and  _176
REMARK   76  A    between atoms: _175  and  _178
REMARK   77  A    between atoms: _178  and  _179
REMARK   78  A    between atoms: _179  and  _180
REMARK   79  A    between atoms: _183  and  _185
REMARK   80  A    between atoms: _185  and  _186
REMARK   81  A    between atoms: _185  and  _188
REMARK   82  A    between atoms: _188  and  _189
REMARK   83  A    between atoms: _192  and  _194
REMARK   84  A    between atoms: _194  and  _195
REMARK   85  A    between atoms: _194  and  _197
REMARK   86  A    between atoms: _197  and  _198
REMARK   87  A    between atoms: _201  and  _203
REMARK   88  A    between atoms: _203  and  _204
REMARK   89  A    between atoms: _203  and  _206
REMARK   90  A    between atoms: _206  and  _207
REMARK   91  A    between atoms: _207  and  _208
REMARK   92  A    between atoms: _210  and  _212
REMARK   93  A    between atoms: _212  and  _213
REMARK   94  A    between atoms: _212  and  _215
REMARK   95  A    between atoms: _215  and  _216
REMARK   96  A    between atoms: _219  and  _221
REMARK   97  A    between atoms: _221  and  _222
REMARK   98  A    between atoms: _224  and  _226
REMARK   99  A    between atoms: _226  and  _227
REMARK  100  A    between atoms: _226  and  _229
REMARK  101  A    between atoms: _229  and  _230
REMARK  102  A    between atoms: _233  and  _235
REMARK  103  A    between atoms: _235  and  _236
REMARK  104  A    between atoms: _235  and  _238
REMARK  105  A    between atoms: _241  and  _243
REMARK  106  A    between atoms: _243  and  _244
REMARK  107  A    between atoms: _243  and  _246
REMARK  108  A    between atoms: _246  and  _247
REMARK  109  A    between atoms: _247  and  _248
REMARK  110  A    between atoms: _248  and  _249
REMARK  111  A    between atoms: _258  and  _260
REMARK  112  A    between atoms: _260  and  _261
REMARK  113  A    between atoms: _260  and  _263
REMARK  114  A    between atoms: _263  and  _264
REMARK  115  A    between atoms: _266  and  _268
REMARK  116  A    between atoms: _268  and  _269
REMARK  117  A    between atoms: _268  and  _271
REMARK  118  A    between atoms: _271  and  _272
REMARK  119  A    between atoms: _275  and  _277
REMARK  120  A    between atoms: _277  and  _278
REMARK  121  A    between atoms: _277  and  _280
REMARK  122  A    between atoms: _280  and  _281
REMARK  123  A    between atoms: _284  and  _286
REMARK  124  A    between atoms: _286  and  _287
REMARK  125  A    between atoms: _286  and  _289
REMARK  126  A    between atoms: _289  and  _290
REMARK  127  A    between atoms: _296  and  _298
REMARK  128  A    between atoms: _298  and  _299
REMARK  129  A    between atoms: _302  and  _304
REMARK  130  A    between atoms: _304  and  _305
REMARK  131  A    between atoms: _304  and  _307
REMARK  132  A    between atoms: _307  and  _308
REMARK  133  A    between atoms: _311  and  _313
REMARK  134  A    between atoms: _313  and  _314
REMARK  135  A    between atoms: _316  and  _318
REMARK  136  A    between atoms: _318  and  _319
REMARK  137  A    between atoms: _318  and  _321
REMARK  138  A    between atoms: _324  and  _326
REMARK  139  A    between atoms: _326  and  _327
REMARK  140  A    between atoms: _326  and  _329
REMARK  141  A    between atoms: _329  and  _330
REMARK  142  A    between atoms: _330  and  _331
REMARK  143  A    between atoms: _334  and  _336
REMARK  144  A    between atoms: _336  and  _337
REMARK  145  A    between atoms: _339  and  _341
REMARK  146  A    between atoms: _341  and  _342
REMARK  147  A    between atoms: _341  and  _344
REMARK  148  A    between atoms: _344  and  _345
REMARK  149  A    between atoms: _345  and  _346
REMARK  150  A    between atoms: _348  and  _350
REMARK  151  A    between atoms: _350  and  _351
REMARK  152  A    between atoms: _350  and  _353
REMARK  153  A    between atoms: _356  and  _358
REMARK  154  A    between atoms: _358  and  _359
REMARK  155  A    between atoms: _358  and  _361
REMARK  156  A    between atoms: _361  and  _362
REMARK  157  A    between atoms: _362  and  _363
REMARK  158  A    between atoms: _366  and  _368
REMARK  159  A    between atoms: _368  and  _369
REMARK  160  A    between atoms: _368  and  _371
REMARK  161  A    between atoms: _371  and  _372
REMARK  162  A    between atoms: _375  and  _377
REMARK  163  A    between atoms: _377  and  _378
REMARK  164  A    between atoms: _377  and  _380
REMARK  165  A    between atoms: _380  and  _381
REMARK  166  A    between atoms: _387  and  _389
REMARK  167  A    between atoms: _389  and  _390
REMARK  168  A    between atoms: _389  and  _392
REMARK  169  A    between atoms: _392  and  _393
REMARK  170  A    between atoms: _396  and  _398
REMARK  171  A    between atoms: _398  and  _399
REMARK  172  A    between atoms: _398  and  _401
REMARK  173  A    between atoms: _401  and  _402
REMARK  174  A    between atoms: _402  and  _403
REMARK  175  A    between atoms: _405  and  _407
REMARK  176  A    between atoms: _407  and  _408
REMARK  177  A    between atoms: _407  and  _410
REMARK  178  A    between atoms: _410  and  _411
REMARK  179  A    between atoms: _413  and  _415
REMARK  180  A    between atoms: _415  and  _416
REMARK  181  A    between atoms: _415  and  _418
REMARK  182  A    between atoms: _418  and  _419
REMARK  183  A    between atoms: _424  and  _426
REMARK  184  A    between atoms: _426  and  _427
REMARK  185  A    between atoms: _426  and  _429
REMARK  186  A    between atoms: _429  and  _430
REMARK  187  A    between atoms: _430  and  _431
REMARK  188  A    between atoms: _431  and  _432
REMARK  189  A    between atoms: _432  and  _433
REMARK  190  A    between atoms: _437  and  _439
REMARK  191  A    between atoms: _439  and  _440
REMARK  192  A    between atoms: _442  and  _444
REMARK  193  A    between atoms: _444  and  _445
REMARK  194  A    between atoms: _444  and  _447
REMARK  195  A    between atoms: _447  and  _448
REMARK  196  A    between atoms: _448  and  _449
REMARK  197  A    between atoms: _451  and  _453
REMARK  198  A    between atoms: _453  and  _454
REMARK  199  A    between atoms: _453  and  _456
REMARK  200  A    between atoms: _456  and  _457
REMARK  201  A    between atoms: _457  and  _458
REMARK  202  A    between atoms: _461  and  _463
REMARK  203  A    between atoms: _463  and  _464
REMARK  204  A    between atoms: _463  and  _466
REMARK  205  A    between atoms: _466  and  _467
REMARK  206  A    between atoms: _472  and  _474
REMARK  207  A    between atoms: _474  and  _475
REMARK  208  A    between atoms: _474  and  _477
REMARK  209  A    between atoms: _477  and  _478
REMARK  210  A    between atoms: _481  and  _483
REMARK  211  A    between atoms: _483  and  _484
REMARK  212  A    between atoms: _483  and  _486
REMARK  213  A    between atoms: _486  and  _487
REMARK  214  A    between atoms: _492  and  _493
REMARK  215  A    between atoms: _495  and  _497
REMARK  216  A    between atoms: _497  and  _498
REMARK  217  A    between atoms: _497  and  _500
REMARK  218  A    between atoms: _500  and  _501
REMARK  219  A    between atoms: _503  and  _505
REMARK  220  A    between atoms: _505  and  _506
REMARK  221  A    between atoms: _505  and  _508
REMARK  222  A    between atoms: _508  and  _509
REMARK  223  A    between atoms: _509  and  _510
REMARK  224  A    between atoms: _512  and  _514
REMARK  225  A    between atoms: _514  and  _515
REMARK  226  A    between atoms: _514  and  _517
REMARK  227  A    between atoms: _517  and  _518
REMARK  228  A    between atoms: _518  and  _519
REMARK  229  A    between atoms: _519  and  _520
REMARK  230  A    between atoms: _520  and  _521
REMARK  231  A    between atoms: _525  and  _527
REMARK  232  A    between atoms: _527  and  _528
REMARK  233  A    between atoms: _527  and  _530
REMARK  234  A    between atoms: _530  and  _531
REMARK  235  A    between atoms: _531  and  _532
REMARK  236  A    between atoms: _532  and  _533
REMARK  237  A    between atoms: _533  and  _534
REMARK  238  A    between atoms: _538  and  _540
REMARK  239  A    between atoms: _540  and  _541
REMARK  240  A    between atoms: _540  and  _543
REMARK  241  A    between atoms: _547  and  _548
REMARK  242  A    between atoms: _553  and  _555
REMARK  243  A    between atoms: _555  and  _556
REMARK  244  A    between atoms: _555  and  _558
REMARK  245  A    between atoms: _558  and  _559
REMARK  246  A    between atoms: _562  and  _564
REMARK  247  A    between atoms: _564  and  _565
REMARK  248  A    between atoms: _564  and  _567
REMARK  249  A    between atoms: _567  and  _568
REMARK  250  A    between atoms: _571  and  _573
REMARK  251  A    between atoms: _573  and  _574
REMARK  252  A    between atoms: _573  and  _576
REMARK  253  A    between atoms: _576  and  _577
REMARK  254  A    between atoms: _580  and  _582
REMARK  255  A    between atoms: _582  and  _583
REMARK  256  A    between atoms: _582  and  _585
REMARK  257  A    between atoms: _585  and  _586
REMARK  258  A    between atoms: _586  and  _587
REMARK                            x       y       z     vdW  Elec       q    Type
REMARK                         _______ _______ _______ _____ _____    ______ ____
ROOT
ATOM      1  C   LEU A   1      29.291  -4.266   9.700  0.00  0.00    +0.238 C 
ATOM      2  N   LEU A   2      29.271  -2.952   9.920  0.00  0.00    -0.298 N 
ATOM      3  H   LEU A   2      30.165  -2.450  10.091  0.00  0.00    +0.150 HD
ATOM      4  O   LEU A   1      28.269  -4.930   9.539  0.00  0.00    -0.274 OA
ENDROOT
BRANCH   1   5
ATOM      5  CA  LEU A   1      30.664  -4.930   9.657  0.00  0.00    +0.145 C 
BRANCH   5   6
ATOM      6  N   LEU A   1      31.566  -4.112   8.862  0.00  0.00    -0.238 NA
ATOM      7  H   LEU A   1      32.355  -3.621   9.329  0.00  0.00    +0.142 HD
ENDBRANCH   5   6
BRANCH   5   8
ATOM      8  CB  LEU A   1      31.225  -5.092  11.076  0.00  0.00    +0.026 C 
BRANCH   8   9
ATOM      9  CG  LEU A   1      30.469  -5.982  12.065  0.00  0.00    +0.002 C 
ATOM     10  CD2 LEU A   1      31.345  -6.248  13.280  0.00  0.00    +0.000 C 
ATOM     11  CD1 LEU A   1      29.186  -5.309  12.498  0.00  0.00    +0.000 C 
ENDBRANCH   8   9
ENDBRANCH   5   8
ENDBRANCH   1   5
BRANCH   2  12
ATOM     12  CA  LEU A   2      28.020  -2.206   9.926  0.00  0.00    +0.137 C 
BRANCH  12  13
ATOM     13  C   LEU A   2      27.337  -2.298   8.563  0.00  0.00    +0.227 C 
ATOM     14  O   LEU A   2      26.124  -2.486   8.474  0.00  0.00    -0.286 OA
ENDBRANCH  12  13
BRANCH  12  15
ATOM     15  CB  LEU A   2      28.279  -0.733  10.276  0.00  0.00    +0.028 C 
BRANCH  15  16
ATOM     16  CG  LEU A   2      28.590  -0.405  11.743  0.00  0.00    +0.002 C 
ATOM     17  CD2 LEU A   2      27.388  -0.749  12.613  0.00  0.00    +0.000 C 
ATOM     18  CD1 LEU A   2      28.932   1.079  11.875  0.00  0.00    +0.000 C 
ENDBRANCH  15  16
ENDBRANCH  12  15
ENDBRANCH   2  12
TORSDOF 8
REMARK  Name = ../refined-set-2016/2ayr/2ayr_pocket.pdb
REMARK  258 active torsions:
REMARK  status: ('A' for Active; 'I' for Inactive)
REMARK    1  A    between atoms: _1  and  _3
REMARK    2  A    between atoms: _3  and  _4
REMARK    3  A    between atoms: _3  and  _6
REMARK    4  A    between atoms: _6  and  _7
REMARK    5  A    between atoms: _10  and  _12
REMARK    6  A    between atoms: _12  and  _13
REMARK    7  A    between atoms: _12  and  _15
REMARK    8  A    between atoms: _15  and  _16
REMARK    9  A    between atoms: _16  and  _17
REMARK   10  A    between atoms: _19  and  _21
REMARK   11  A    between atoms: _21  and  _22
REMARK   12  A    between atoms: _21  and  _24
REMARK   13  A    between atoms: _24  and  _25
REMARK   14  A    between atoms: _25  and  _26
REMARK   15  A    between atoms: _28  and  _30
REMARK   16  A    between atoms: _30  and  _31
REMARK   17  A    between atoms: _33  and  _35
REMARK   18  A    between atoms: _35  and  _36
REMARK   19  A    between atoms: _35  and  _38
REMARK   20  A    between atoms: _38  and  _39
REMARK   21  A    between atoms: _42  and  _44
REMARK   22  A    between atoms: _44  and  _45
REMARK   23  A    between atoms: _44  and  _47
REMARK   24  A    between atoms: _47  and  _48
REMARK   25  A    between atoms: _51  and  _53
REMARK   26  A    between atoms: _53  and  _54
REMARK   27  A    between atoms: _53  and  _56
REMARK   28  A    between atoms: _56  and  _57
REMARK   29  A    between atoms: _60  and  _62
REMARK   30  A    between atoms: _62  and  _63
REMARK   31  A    between atoms: _62  and  _65
REMARK   32  A    between atoms: _65  and  _66
REMARK   33  A    between atoms: _71  and  _73
REMARK   34  A    between atoms: _73  and  _74
REMARK   35  A    between atoms: _73  and  _76
REMARK   36  A    between atoms: _76  and  _77
REMARK   37  A    between atoms: _80  and  _82
REMARK   38  A    between atoms: _82  and  _83
REMARK   39  A    between atoms: _86  and  _88
REMARK   40  A    between atoms: _88  and  _89
REMARK   41  A    between atoms: _88  and  _91
REMARK   42  A    between atoms: _91  and  _92
REMARK   43  A    between atoms: _95  and  _97
REMARK   44  A    between atoms: _97  and  _98
REMARK   45  A    between atoms: _97  and  _100
REMARK   46  A    between atoms: _100  and  _101
REMARK   47  A    between atoms: _101  and  _102
REMARK   48  A    between atoms: _102  and  _103
REMARK   49  A    between atoms: _112  and  _114
REMARK   50  A    between atoms: _114  and  _115
REMARK   51  A    between atoms: _114  and  _117
REMARK   52  A    between atoms: _117  and  _118
REMARK   53  A    between atoms: _118  and  _119
REMARK   54  A    between atoms: _122  and  _124
REMARK   55  A    between atoms: _124  and  _125
REMARK   56  A    between atoms: _124  and  _127
REMARK   57  A    between atoms: _127  and  _128
REMARK   58  A    between atoms: _131  and  _133
REMARK   59  A    between atoms: _133  and  _134
REMARK   60  A    between atoms: _133  and  _136
REMARK   61  A    between atoms: _139  and  _141
REMARK   62  A    between atoms: _141  and  _142
REMARK   63  A    between atoms: _141  and  _144
REMARK   64  A    between atoms: _144  and  _145
REMARK   65  A    between atoms: _145  and  _146
REMARK   66  A    between atoms: _148  and  _150
REMARK   67  A    between atoms: _150  and  _151
REMARK   68  A    between atoms: _150  and  _153
REMARK   69  A    between atoms: _153  and  _154
REMARK   70  A    between atoms: _164  and  _166
REMARK   71  A    between atoms: _166  and  _167
REMARK   72  A    between atoms: _166  and  _169
REMARK   73  A    between atoms: _169  and  _170
REMARK   74  A    between atoms: _173  and  _175
REMARK   75  A    between atoms: _175  and  _176
REMARK   76  A    between atoms: _175  and  _178
REMARK   77  A    between atoms: _178  and  _179
REMARK   78  A    between atoms: _179  and  _180
REMARK   79  A    between atoms: _183  and  _185
REMARK   80  A    between atoms: _185  and  _186
REMARK   81  A    between atoms: _185  and  _188
REMARK   82  A    between atoms: _188  and  _189
REMARK   83  A    between atoms: _192  and  _194
REMARK   84  A    between atoms: _194  and  _195
REMARK   85  A    between atoms: _194  and  _197
REMARK   86  A    between atoms: _197  and  _198
REMARK   87  A    between atoms: _201  and  _203
REMARK   88  A    between atoms: _203  and  _204
REMARK   89  A    between atoms: _203  and  _206
REMARK   90  A    between atoms: _206  and  _207
REMARK   91  A    between atoms: _207  and  _208
REMARK   92  A    between atoms: _210  and  _212
REMARK   93  A    between atoms: _212  and  _213
REMARK   94  A    between atoms: _212  and  _215
REMARK   95  A    between atoms: _215  and  _216
REMARK   96  A    between atoms: _219  and  _221
REMARK   97  A    between atoms: _221  and  _222
REMARK   98  A    between atoms: _224  and  _226
REMARK   99  A    between atoms: _226  and  _227
REMARK  100  A    between atoms: _226  and  _229
REMARK  101  A    between atoms: _229  and  _230
REMARK  102  A    between atoms: _233  and  _235
REMARK  103  A    between atoms: _235  and  _236
REMARK  104  A    between atoms: _235  and  _238
REMARK  105  A    between atoms: _241  and  _243
REMARK  106  A    between atoms: _243  and  _244
REMARK  107  A    between atoms: _243  and  _246
REMARK  108  A    between atoms: _246  and  _247
REMARK  109  A    between atoms: _247  and  _248
REMARK  110  A    between atoms: _248  and  _249
REMARK  111  A    between atoms: _258  and  _260
REMARK  112  A    between atoms: _260  and  _261
REMARK  113  A    between atoms: _260  and  _263
REMARK  114  A    between atoms: _263  and  _264
REMARK  115  A    between atoms: _266  and  _268
REMARK  116  A    between atoms: _268  and  _269
REMARK  117  A    between atoms: _268  and  _271
REMARK  118  A    between atoms: _271  and  _272
REMARK  119  A    between atoms: _275  and  _277
REMARK  120  A    between atoms: _277  and  _278
REMARK  121  A    between atoms: _277  and  _280
REMARK  122  A    between atoms: _280  and  _281
REMARK  123  A    between atoms: _284  and  _286
REMARK  124  A    between atoms: _286  and  _287
REMARK  125  A    between atoms: _286  and  _289
REMARK  126  A    between atoms: _289  and  _290
REMARK  127  A    between atoms: _296  and  _298
REMARK  128  A    between atoms: _298  and  _299
REMARK  129  A    between atoms: _302  and  _304
REMARK  130  A    between atoms: _304  and  _305
REMARK  131  A    between atoms: _304  and  _307
REMARK  132  A    between atoms: _307  and  _308
REMARK  133  A    between atoms: _311  and  _313
REMARK  134  A    between atoms: _313  and  _314
REMARK  135  A    between atoms: _316  and  _318
REMARK  136  A    between atoms: _318  and  _319
REMARK  137  A    between atoms: _318  and  _321
REMARK  138  A    between atoms: _324  and  _326
REMARK  139  A    between atoms: _326  and  _327
REMARK  140  A    between atoms: _326  and  _329
REMARK  141  A    between atoms: _329  and  _330
REMARK  142  A    between atoms: _330  and  _331
REMARK  143  A    between atoms: _334  and  _336
REMARK  144  A    between atoms: _336  and  _337
REMARK  145  A    between atoms: _339  and  _341
REMARK  146  A    between atoms: _341  and  _342
REMARK  147  A    between atoms: _341  and  _344
REMARK  148  A    between atoms: _344  and  _345
REMARK  149  A    between atoms: _345  and  _346
REMARK  150  A    between atoms: _348  and  _350
REMARK  151  A    between atoms: _350  and  _351
REMARK  152  A    between atoms: _350  and  _353
REMARK  153  A    between atoms: _356  and  _358
REMARK  154  A    between atoms: _358  and  _359
REMARK  155  A    between atoms: _358  and  _361
REMARK  156  A    between atoms: _361  and  _362
REMARK  157  A    between atoms: _362  and  _363
REMARK  158  A    between atoms: _366  and  _368
REMARK  159  A    between atoms: _368  and  _369
REMARK  160  A    between atoms: _368  and  _371
REMARK  161  A    between atoms: _371  and  _372
REMARK  162  A    between atoms: _375  and  _377
REMARK  163  A    between atoms: _377  and  _378
REMARK  164  A    between atoms: _377  and  _380
REMARK  165  A    between atoms: _380  and  _381
REMARK  166  A    between atoms: _387  and  _389
REMARK  167  A    between atoms: _389  and  _390
REMARK  168  A    between atoms: _389  and  _392
REMARK  169  A    between atoms: _392  and  _393
REMARK  170  A    between atoms: _396  and  _398
REMARK  171  A    between atoms: _398  and  _399
REMARK  172  A    between atoms: _398  and  _401
REMARK  173  A    between atoms: _401  and  _402
REMARK  174  A    between atoms: _402  and  _403
REMARK  175  A    between atoms: _405  and  _407
REMARK  176  A    between atoms: _407  and  _408
REMARK  177  A    between atoms: _407  and  _410
REMARK  178  A    between atoms: _410  and  _411
REMARK  179  A    between atoms: _413  and  _415
REMARK  180  A    between atoms: _415  and  _416
REMARK  181  A    between atoms: _415  and  _418
REMARK  182  A    between atoms: _418  and  _419
REMARK  183  A    between atoms: _424  and  _426
REMARK  184  A    between atoms: _426  and  _427
REMARK  185  A    between atoms: _426  and  _429
REMARK  186  A    between atoms: _429  and  _430
REMARK  187  A    between atoms: _430  and  _431
REMARK  188  A    between atoms: _431  and  _432
REMARK  189  A    between atoms: _432  and  _433
REMARK  190  A    between atoms: _437  and  _439
REMARK  191  A    between atoms: _439  and  _440
REMARK  192  A    between atoms: _442  and  _444
REMARK  193  A    between atoms: _444  and  _445
REMARK  194  A    between atoms: _444  and  _447
REMARK  195  A    between atoms: _447  and  _448
REMARK  196  A    between atoms: _448  and  _449
REMARK  197  A    between atoms: _451  and  _453
REMARK  198  A    between atoms: _453  and  _454
REMARK  199  A    between atoms: _453  and  _456
REMARK  200  A    between atoms: _456  and  _457
REMARK  201  A    between atoms: _457  and  _458
REMARK  202  A    between atoms: _461  and  _463
REMARK  203  A    between atoms: _463  and  _464
REMARK  204  A    between atoms: _463  and  _466
REMARK  205  A    between atoms: _466  and  _467
REMARK  206  A    between atoms: _472  and  _474
REMARK  207  A    between atoms: _474  and  _475
REMARK  208  A    between atoms: _474  and  _477
REMARK  209  A    between atoms: _477  and  _478
REMARK  210  A    between atoms: _481  and  _483
REMARK  211  A    between atoms: _483  and  _484
REMARK  212  A    between atoms: _483  and  _486
REMARK  213  A    between atoms: _486  and  _487
REMARK  214  A    between atoms: _492  and  _493
REMARK  215  A    between atoms: _495  and  _497
REMARK  216  A    between atoms: _497  and  _498
REMARK  217  A    between atoms: _497  and  _500
REMARK  218  A    between atoms: _500  and  _501
REMARK  219  A    between atoms: _503  and  _505
REMARK  220  A    between atoms: _505  and  _506
REMARK  221  A    between atoms: _505  and  _508
REMARK  222  A    between atoms: _508  and  _509
REMARK  223  A    between atoms: _509  and  _510
REMARK  224  A    between atoms: _512  and  _514
REMARK  225  A    between atoms: _514  and  _515
REMARK  226  A    between atoms: _514  and  _517
REMARK  227  A    between atoms: _517  and  _518
REMARK  228  A    between atoms: _518  and  _519
REMARK  229  A    between atoms: _519  and  _520
REMARK  230  A    between atoms: _520  and  _521
REMARK  231  A    between atoms: _525  and  _527
REMARK  232  A    between atoms: _527  and  _528
REMARK  233  A    between atoms: _527  and  _530
REMARK  234  A    between atoms: _530  and  _531
REMARK  235  A    between atoms: _531  and  _532
REMARK  236  A    between atoms: _532  and  _533
REMARK  237  A    between atoms: _533  and  _534
REMARK  238  A    between atoms: _538  and  _540
REMARK  239  A    between atoms: _540  and  _541
REMARK  240  A    between atoms: _540  and  _543
REMARK  241  A    between atoms: _547  and  _548
REMARK  242  A    between atoms: _553  and  _555
REMARK  243  A    between atoms: _555  and  _556
REMARK  244  A    between atoms: _555  and  _558
REMARK  245  A    between atoms: _558  and  _559
REMARK  246  A    between atoms: _562  and  _564
REMARK  247  A    between atoms: _564  and  _565
REMARK  248  A    between atoms: _564  and  _567
REMARK  249  A    between atoms: _567  and  _568
REMARK  250  A    between atoms: _571  and  _573
REMARK  251  A    between atoms: _573  and  _574
REMARK  252  A    between atoms: _573  and  _576
REMARK  253  A    between atoms: _576  and  _577
REMARK  254  A    between atoms: _580  and  _582
REMARK  255  A    between atoms: _582  and  _583
REMARK  256  A    between atoms: _582  and  _585
REMARK  257  A    between atoms: _585  and  _586
REMARK  258  A    between atoms: _586  and  _587
REMARK                            x       y       z     vdW  Elec       q    Type
REMARK                         _______ _______ _______ _____ _____    ______ ____
ROOT
ATOM      1  CA  MET A   1      24.339  -5.674   8.673  0.00  0.00    +0.134 C 
ENDROOT
BRANCH   1   2
ATOM      2  N   MET A   1      25.573  -5.572   7.906  0.00  0.00    -0.239 NA
ATOM      3  H   MET A   1      26.387  -5.065   8.309  0.00  0.00    +0.142 HD
ENDBRANCH   1   2
BRANCH   1   4
ATOM      4  C   MET A   1      23.250  -4.741   8.152  0.00  0.00    +0.224 C 
ATOM      5  O   MET A   1      22.067  -5.093   8.155  0.00  0.00    -0.287 OA
ENDBRANCH   1   4
BRANCH   1   6
ATOM      6  CB  MET A   1      24.604  -5.374  10.152  0.00  0.00    +0.037 C 
BRANCH   6   7
ATOM      7  CG  MET A   1      25.507  -6.382  10.835  0.00  0.00    +0.059 C 
BRANCH   7   8
ATOM      8  SD  MET A   1      25.376  -6.351  12.642  0.00  0.00    -0.139 S 
ATOM      9  CE  MET A   1      26.144  -4.813  13.012  0.00  0.00    +0.069 C 
ENDBRANCH   7   8
ENDBRANCH   6   7
ENDBRANCH   1   6
TORSDOF 5
REMARK  Name = ../refined-set-2016/2ayr/2ayr_pocket.pdb
REMARK  258 active torsions:
REMARK  status: ('A' for Active; 'I' for Inactive)
REMARK    1  A    between atoms: _1  and  _3
REMARK    2  A    between atoms: _3  and  _4
REMARK    3  A    between atoms: _3  and  _6
REMARK    4  A    between atoms: _6  and  _7
REMARK    5  A    between atoms: _10  and  _12
REMARK    6  A    between atoms: _12  and  _13
REMARK    7  A    between atoms: _12  and  _15
REMARK    8  A    between atoms: _15  and  _16
REMARK    9  A    between atoms: _16  and  _17
REMARK   10  A    between atoms: _19  and  _21
REMARK   11  A    between atoms: _21  and  _22
REMARK   12  A    between atoms: _21  and  _24
REMARK   13  A    between atoms: _24  and  _25
REMARK   14  A    between atoms: _25  and  _26
REMARK   15  A    between atoms: _28  and  _30
REMARK   16  A    between atoms: _30  and  _31
REMARK   17  A    between atoms: _33  and  _35
REMARK   18  A    between atoms: _35  and  _36
REMARK   19  A    between atoms: _35  and  _38
REMARK   20  A    between atoms: _38  and  _39
REMARK   21  A    between atoms: _42  and  _44
REMARK   22  A    between atoms: _44  and  _45
REMARK   23  A    between atoms: _44  and  _47
REMARK   24  A    between atoms: _47  and  _48
REMARK   25  A    between atoms: _51  and  _53
REMARK   26  A    between atoms: _53  and  _54
REMARK   27  A    between atoms: _53  and  _56
REMARK   28  A    between atoms: _56  and  _57
REMARK   29  A    between atoms: _60  and  _62
REMARK   30  A    between atoms: _62  and  _63
REMARK   31  A    between atoms: _62  and  _65
REMARK   32  A    between atoms: _65  and  _66
REMARK   33  A    between atoms: _71  and  _73
REMARK   34  A    between atoms: _73  and  _74
REMARK   35  A    between atoms: _73  and  _76
REMARK   36  A    between atoms: _76  and  _77
REMARK   37  A    between atoms: _80  and  _82
REMARK   38  A    between atoms: _82  and  _83
REMARK   39  A    between atoms: _86  and  _88
REMARK   40  A    between atoms: _88  and  _89
REMARK   41  A    between atoms: _88  and  _91
REMARK   42  A    between atoms: _91  and  _92
REMARK   43  A    between atoms: _95  and  _97
REMARK   44  A    between atoms: _97  and  _98
REMARK   45  A    between atoms: _97  and  _100
REMARK   46  A    between atoms: _100  and  _101
REMARK   47  A    between atoms: _101  and  _102
REMARK   48  A    between atoms: _102  and  _103
REMARK   49  A    between atoms: _112  and  _114
REMARK   50  A    between atoms: _114  and  _115
REMARK   51  A    between atoms: _114  and  _117
REMARK   52  A    between atoms: _117  and  _118
REMARK   53  A    between atoms: _118  and  _119
REMARK   54  A    between atoms: _122  and  _124
REMARK   55  A    between atoms: _124  and  _125
REMARK   56  A    between atoms: _124  and  _127
REMARK   57  A    between atoms: _127  and  _128
REMARK   58  A    between atoms: _131  and  _133
REMARK   59  A    between atoms: _133  and  _134
REMARK   60  A    between atoms: _133  and  _136
REMARK   61  A    between atoms: _139  and  _141
REMARK   62  A    between atoms: _141  and  _142
REMARK   63  A    between atoms: _141  and  _144
REMARK   64  A    between atoms: _144  and  _145
REMARK   65  A    between atoms: _145  and  _146
REMARK   66  A    between atoms: _148  and  _150
REMARK   67  A    between atoms: _150  and  _151
REMARK   68  A    between atoms: _150  and  _153
REMARK   69  A    between atoms: _153  and  _154
REMARK   70  A    between atoms: _164  and  _166
REMARK   71  A    between atoms: _166  and  _167
REMARK   72  A    between atoms: _166  and  _169
REMARK   73  A    between atoms: _169  and  _170
REMARK   74  A    between atoms: _173  and  _175
REMARK   75  A    between atoms: _175  and  _176
REMARK   76  A    between atoms: _175  and  _178
REMARK   77  A    between atoms: _178  and  _179
REMARK   78  A    between atoms: _179  and  _180
REMARK   79  A    between atoms: _183  and  _185
REMARK   80  A    between atoms: _185  and  _186
REMARK   81  A    between atoms: _185  and  _188
REMARK   82  A    between atoms: _188  and  _189
REMARK   83  A    between atoms: _192  and  _194
REMARK   84  A    between atoms: _194  and  _195
REMARK   85  A    between atoms: _194  and  _197
REMARK   86  A    between atoms: _197  and  _198
REMARK   87  A    between atoms: _201  and  _203
REMARK   88  A    between atoms: _203  and  _204
REMARK   89  A    between atoms: _203  and  _206
REMARK   90  A    between atoms: _206  and  _207
REMARK   91  A    between atoms: _207  and  _208
REMARK   92  A    between atoms: _210  and  _212
REMARK   93  A    between atoms: _212  and  _213
REMARK   94  A    between atoms: _212  and  _215
REMARK   95  A    between atoms: _215  and  _216
REMARK   96  A    between atoms: _219  and  _221
REMARK   97  A    between atoms: _221  and  _222
REMARK   98  A    between atoms: _224  and  _226
REMARK   99  A    between atoms: _226  and  _227
REMARK  100  A    between atoms: _226  and  _229
REMARK  101  A    between atoms: _229  and  _230
REMARK  102  A    between atoms: _233  and  _235
REMARK  103  A    between atoms: _235  and  _236
REMARK  104  A    between atoms: _235  and  _238
REMARK  105  A    between atoms: _241  and  _243
REMARK  106  A    between atoms: _243  and  _244
REMARK  107  A    between atoms: _243  and  _246
REMARK  108  A    between atoms: _246  and  _247
REMARK  109  A    between atoms: _247  and  _248
REMARK  110  A    between atoms: _248  and  _249
REMARK  111  A    between atoms: _258  and  _260
REMARK  112  A    between atoms: _260  and  _261
REMARK  113  A    between atoms: _260  and  _263
REMARK  114  A    between atoms: _263  and  _264
REMARK  115  A    between atoms: _266  and  _268
REMARK  116  A    between atoms: _268  and  _269
REMARK  117  A    between atoms: _268  and  _271
REMARK  118  A    between atoms: _271  and  _272
REMARK  119  A    between atoms: _275  and  _277
REMARK  120  A    between atoms: _277  and  _278
REMARK  121  A    between atoms: _277  and  _280
REMARK  122  A    between atoms: _280  and  _281
REMARK  123  A    between atoms: _284  and  _286
REMARK  124  A    between atoms: _286  and  _287
REMARK  125  A    between atoms: _286  and  _289
REMARK  126  A    between atoms: _289  and  _290
REMARK  127  A    between atoms: _296  and  _298
REMARK  128  A    between atoms: _298  and  _299
REMARK  129  A    between atoms: _302  and  _304
REMARK  130  A    between atoms: _304  and  _305
REMARK  131  A    between atoms: _304  and  _307
REMARK  132  A    between atoms: _307  and  _308
REMARK  133  A    between atoms: _311  and  _313
REMARK  134  A    between atoms: _313  and  _314
REMARK  135  A    between atoms: _316  and  _318
REMARK  136  A    between atoms: _318  and  _319
REMARK  137  A    between atoms: _318  and  _321
REMARK  138  A    between atoms: _324  and  _326
REMARK  139  A    between atoms: _326  and  _327
REMARK  140  A    between atoms: _326  and  _329
REMARK  141  A    between atoms: _329  and  _330
REMARK  142  A    between atoms: _330  and  _331
REMARK  143  A    between atoms: _334  and  _336
REMARK  144  A    between atoms: _336  and  _337
REMARK  145  A    between atoms: _339  and  _341
REMARK  146  A    between atoms: _341  and  _342
REMARK  147  A    between atoms: _341  and  _344
REMARK  148  A    between atoms: _344  and  _345
REMARK  149  A    between atoms: _345  and  _346
REMARK  150  A    between atoms: _348  and  _350
REMARK  151  A    between atoms: _350  and  _351
REMARK  152  A    between atoms: _350  and  _353
REMARK  153  A    between atoms: _356  and  _358
REMARK  154  A    between atoms: _358  and  _359
REMARK  155  A    between atoms: _358  and  _361
REMARK  156  A    between atoms: _361  and  _362
REMARK  157  A    between atoms: _362  and  _363
REMARK  158  A    between atoms: _366  and  _368
REMARK  159  A    between atoms: _368  and  _369
REMARK  160  A    between atoms: _368  and  _371
REMARK  161  A    between atoms: _371  and  _372
REMARK  162  A    between atoms: _375  and  _377
REMARK  163  A    between atoms: _377  and  _378
REMARK  164  A    between atoms: _377  and  _380
REMARK  165  A    between atoms: _380  and  _381
REMARK  166  A    between atoms: _387  and  _389
REMARK  167  A    between atoms: _389  and  _390
REMARK  168  A    between atoms: _389  and  _392
REMARK  169  A    between atoms: _392  and  _393
REMARK  170  A    between atoms: _396  and  _398
REMARK  171  A    between atoms: _398  and  _399
REMARK  172  A    between atoms: _398  and  _401
REMARK  173  A    between atoms: _401  and  _402
REMARK  174  A    between atoms: _402  and  _403
REMARK  175  A    between atoms: _405  and  _407
REMARK  176  A    between atoms: _407  and  _408
REMARK  177  A    between atoms: _407  and  _410
REMARK  178  A    between atoms: _410  and  _411
REMARK  179  A    between atoms: _413  and  _415
REMARK  180  A    between atoms: _415  and  _416
REMARK  181  A    between atoms: _415  and  _418
REMARK  182  A    between atoms: _418  and  _419
REMARK  183  A    between atoms: _424  and  _426
REMARK  184  A    between atoms: _426  and  _427
REMARK  185  A    between atoms: _426  and  _429
REMARK  186  A    between atoms: _429  and  _430
REMARK  187  A    between atoms: _430  and  _431
REMARK  188  A    between atoms: _431  and  _432
REMARK  189  A    between atoms: _432  and  _433
REMARK  190  A    between atoms: _437  and  _439
REMARK  191  A    between atoms: _439  and  _440
REMARK  192  A    between atoms: _442  and  _444
REMARK  193  A    between atoms: _444  and  _445
REMARK  194  A    between atoms: _444  and  _447
REMARK  195  A    between atoms: _447  and  _448
REMARK  196  A    between atoms: _448  and  _449
REMARK  197  A    between atoms: _451  and  _453
REMARK  198  A    between atoms: _453  and  _454
REMARK  199  A    between atoms: _453  and  _456
REMARK  200  A    between atoms: _456  and  _457
REMARK  201  A    between atoms: _457  and  _458
REMARK  202  A    between atoms: _461  and  _463
REMARK  203  A    between atoms: _463  and  _464
REMARK  204  A    between atoms: _463  and  _466
REMARK  205  A    between atoms: _466  and  _467
REMARK  206  A    between atoms: _472  and  _474
REMARK  207  A    between atoms: _474  and  _475
REMARK  208  A    between atoms: _474  and  _477
REMARK  209  A    between atoms: _477  and  _478
REMARK  210  A    between atoms: _481  and  _483
REMARK  211  A    between atoms: _483  and  _484
REMARK  212  A    between atoms: _483  and  _486
REMARK  213  A    between atoms: _486  and  _487
REMARK  214  A    between atoms: _492  and  _493
REMARK  215  A    between atoms: _495  and  _497
REMARK  216  A    between atoms: _497  and  _498
REMARK  217  A    between atoms: _497  and  _500
REMARK  218  A    between atoms: _500  and  _501
REMARK  219  A    between atoms: _503  and  _505
REMARK  220  A    between atoms: _505  and  _506
REMARK  221  A    between atoms: _505  and  _508
REMARK  222  A    between atoms: _508  and  _509
REMARK  223  A    between atoms: _509  and  _510
REMARK  224  A    between atoms: _512  and  _514
REMARK  225  A    between atoms: _514  and  _515
REMARK  226  A    between atoms: _514  and  _517
REMARK  227  A    between atoms: _517  and  _518
REMARK  228  A    between atoms: _518  and  _519
REMARK  229  A    between atoms: _519  and  _520
REMARK  230  A    between atoms: _520  and  _521
REMARK  231  A    between atoms: _525  and  _527
REMARK  232  A    between atoms: _527  and  _528
REMARK  233  A    between atoms: _527  and  _530
REMARK  234  A    between atoms: _530  and  _531
REMARK  235  A    between atoms: _531  and  _532
REMARK  236  A    between atoms: _532  and  _533
REMARK  237  A    between atoms: _533  and  _534
REMARK  238  A    between atoms: _538  and  _540
REMARK  239  A    between atoms: _540  and  _541
REMARK  240  A    between atoms: _540  and  _543
REMARK  241  A    between atoms: _547  and  _548
REMARK  242  A    between atoms: _553  and  _555
REMARK  243  A    between atoms: _555  and  _556
REMARK  244  A    between atoms: _555  and  _558
REMARK  245  A    between atoms: _558  and  _559
REMARK  246  A    between atoms: _562  and  _564
REMARK  247  A    between atoms: _564  and  _565
REMARK  248  A    between atoms: _564  and  _567
REMARK  249  A    between atoms: _567  and  _568
REMARK  250  A    between atoms: _571  and  _573
REMARK  251  A    between atoms: _573  and  _574
REMARK  252  A    between atoms: _573  and  _576
REMARK  253  A    between atoms: _576  and  _577
REMARK  254  A    between atoms: _580  and  _582
REMARK  255  A    between atoms: _582  and  _583
REMARK  256  A    between atoms: _582  and  _585
REMARK  257  A    between atoms: _585  and  _586
REMARK  258  A    between atoms: _586  and  _587
REMARK                            x       y       z     vdW  Elec       q    Type
REMARK                         _______ _______ _______ _____ _____    ______ ____
ROOT
ATOM      1  O   HOH     1      22.533   0.009  25.742  0.00  0.00    +0.000 OA
ENDROOT
TORSDOF 0
REMARK  Name = ../refined-set-2016/2ayr/2ayr_pocket.pdb
REMARK  258 active torsions:
REMARK  status: ('A' for Active; 'I' for Inactive)
REMARK    1  A    between atoms: _1  and  _3
REMARK    2  A    between atoms: _3  and  _4
REMARK    3  A    between atoms: _3  and  _6
REMARK    4  A    between atoms: _6  and  _7
REMARK    5  A    between atoms: _10  and  _12
REMARK    6  A    between atoms: _12  and  _13
REMARK    7  A    between atoms: _12  and  _15
REMARK    8  A    between atoms: _15  and  _16
REMARK    9  A    between atoms: _16  and  _17
REMARK   10  A    between atoms: _19  and  _21
REMARK   11  A    between atoms: _21  and  _22
REMARK   12  A    between atoms: _21  and  _24
REMARK   13  A    between atoms: _24  and  _25
REMARK   14  A    between atoms: _25  and  _26
REMARK   15  A    between atoms: _28  and  _30
REMARK   16  A    between atoms: _30  and  _31
REMARK   17  A    between atoms: _33  and  _35
REMARK   18  A    between atoms: _35  and  _36
REMARK   19  A    between atoms: _35  and  _38
REMARK   20  A    between atoms: _38  and  _39
REMARK   21  A    between atoms: _42  and  _44
REMARK   22  A    between atoms: _44  and  _45
REMARK   23  A    between atoms: _44  and  _47
REMARK   24  A    between atoms: _47  and  _48
REMARK   25  A    between atoms: _51  and  _53
REMARK   26  A    between atoms: _53  and  _54
REMARK   27  A    between atoms: _53  and  _56
REMARK   28  A    between atoms: _56  and  _57
REMARK   29  A    between atoms: _60  and  _62
REMARK   30  A    between atoms: _62  and  _63
REMARK   31  A    between atoms: _62  and  _65
REMARK   32  A    between atoms: _65  and  _66
REMARK   33  A    between atoms: _71  and  _73
REMARK   34  A    between atoms: _73  and  _74
REMARK   35  A    between atoms: _73  and  _76
REMARK   36  A    between atoms: _76  and  _77
REMARK   37  A    between atoms: _80  and  _82
REMARK   38  A    between atoms: _82  and  _83
REMARK   39  A    between atoms: _86  and  _88
REMARK   40  A    between atoms: _88  and  _89
REMARK   41  A    between atoms: _88  and  _91
REMARK   42  A    between atoms: _91  and  _92
REMARK   43  A    between atoms: _95  and  _97
REMARK   44  A    between atoms: _97  and  _98
REMARK   45  A    between atoms: _97  and  _100
REMARK   46  A    between atoms: _100  and  _101
REMARK   47  A    between atoms: _101  and  _102
REMARK   48  A    between atoms: _102  and  _103
REMARK   49  A    between atoms: _112  and  _114
REMARK   50  A    between atoms: _114  and  _115
REMARK   51  A    between atoms: _114  and  _117
REMARK   52  A    between atoms: _117  and  _118
REMARK   53  A    between atoms: _118  and  _119
REMARK   54  A    between atoms: _122  and  _124
REMARK   55  A    between atoms: _124  and  _125
REMARK   56  A    between atoms: _124  and  _127
REMARK   57  A    between atoms: _127  and  _128
REMARK   58  A    between atoms: _131  and  _133
REMARK   59  A    between atoms: _133  and  _134
REMARK   60  A    between atoms: _133  and  _136
REMARK   61  A    between atoms: _139  and  _141
REMARK   62  A    between atoms: _141  and  _142
REMARK   63  A    between atoms: _141  and  _144
REMARK   64  A    between atoms: _144  and  _145
REMARK   65  A    between atoms: _145  and  _146
REMARK   66  A    between atoms: _148  and  _150
REMARK   67  A    between atoms: _150  and  _151
REMARK   68  A    between atoms: _150  and  _153
REMARK   69  A    between atoms: _153  and  _154
REMARK   70  A    between atoms: _164  and  _166
REMARK   71  A    between atoms: _166  and  _167
REMARK   72  A    between atoms: _166  and  _169
REMARK   73  A    between atoms: _169  and  _170
REMARK   74  A    between atoms: _173  and  _175
REMARK   75  A    between atoms: _175  and  _176
REMARK   76  A    between atoms: _175  and  _178
REMARK   77  A    between atoms: _178  and  _179
REMARK   78  A    between atoms: _179  and  _180
REMARK   79  A    between atoms: _183  and  _185
REMARK   80  A    between atoms: _185  and  _186
REMARK   81  A    between atoms: _185  and  _188
REMARK   82  A    between atoms: _188  and  _189
REMARK   83  A    between atoms: _192  and  _194
REMARK   84  A    between atoms: _194  and  _195
REMARK   85  A    between atoms: _194  and  _197
REMARK   86  A    between atoms: _197  and  _198
REMARK   87  A    between atoms: _201  and  _203
REMARK   88  A    between atoms: _203  and  _204
REMARK   89  A    between atoms: _203  and  _206
REMARK   90  A    between atoms: _206  and  _207
REMARK   91  A    between atoms: _207  and  _208
REMARK   92  A    between atoms: _210  and  _212
REMARK   93  A    between atoms: _212  and  _213
REMARK   94  A    between atoms: _212  and  _215
REMARK   95  A    between atoms: _215  and  _216
REMARK   96  A    between atoms: _219  and  _221
REMARK   97  A    between atoms: _221  and  _222
REMARK   98  A    between atoms: _224  and  _226
REMARK   99  A    between atoms: _226  and  _227
REMARK  100  A    between atoms: _226  and  _229
REMARK  101  A    between atoms: _229  and  _230
REMARK  102  A    between atoms: _233  and  _235
REMARK  103  A    between atoms: _235  and  _236
REMARK  104  A    between atoms: _235  and  _238
REMARK  105  A    between atoms: _241  and  _243
REMARK  106  A    between atoms: _243  and  _244
REMARK  107  A    between atoms: _243  and  _246
REMARK  108  A    between atoms: _246  and  _247
REMARK  109  A    between atoms: _247  and  _248
REMARK  110  A    between atoms: _248  and  _249
REMARK  111  A    between atoms: _258  and  _260
REMARK  112  A    between atoms: _260  and  _261
REMARK  113  A    between atoms: _260  and  _263
REMARK  114  A    between atoms: _263  and  _264
REMARK  115  A    between atoms: _266  and  _268
REMARK  116  A    between atoms: _268  and  _269
REMARK  117  A    between atoms: _268  and  _271
REMARK  118  A    between atoms: _271  and  _272
REMARK  119  A    between atoms: _275  and  _277
REMARK  120  A    between atoms: _277  and  _278
REMARK  121  A    between atoms: _277  and  _280
REMARK  122  A    between atoms: _280  and  _281
REMARK  123  A    between atoms: _284  and  _286
REMARK  124  A    between atoms: _286  and  _287
REMARK  125  A    between atoms: _286  and  _289
REMARK  126  A    between atoms: _289  and  _290
REMARK  127  A    between atoms: _296  and  _298
REMARK  128  A    between atoms: _298  and  _299
REMARK  129  A    between atoms: _302  and  _304
REMARK  130  A    between atoms: _304  and  _305
REMARK  131  A    between atoms: _304  and  _307
REMARK  132  A    between atoms: _307  and  _308
REMARK  133  A    between atoms: _311  and  _313
REMARK  134  A    between atoms: _313  and  _314
REMARK  135  A    between atoms: _316  and  _318
REMARK  136  A    between atoms: _318  and  _319
REMARK  137  A    between atoms: _318  and  _321
REMARK  138  A    between atoms: _324  and  _326
REMARK  139  A    between atoms: _326  and  _327
REMARK  140  A    between atoms: _326  and  _329
REMARK  141  A    between atoms: _329  and  _330
REMARK  142  A    between atoms: _330  and  _331
REMARK  143  A    between atoms: _334  and  _336
REMARK  144  A    between atoms: _336  and  _337
REMARK  145  A    between atoms: _339  and  _341
REMARK  146  A    between atoms: _341  and  _342
REMARK  147  A    between atoms: _341  and  _344
REMARK  148  A    between atoms: _344  and  _345
REMARK  149  A    between atoms: _345  and  _346
REMARK  150  A    between atoms: _348  and  _350
REMARK  151  A    between atoms: _350  and  _351
REMARK  152  A    between atoms: _350  and  _353
REMARK  153  A    between atoms: _356  and  _358
REMARK  154  A    between atoms: _358  and  _359
REMARK  155  A    between atoms: _358  and  _361
REMARK  156  A    between atoms: _361  and  _362
REMARK  157  A    between atoms: _362  and  _363
REMARK  158  A    between atoms: _366  and  _368
REMARK  159  A    between atoms: _368  and  _369
REMARK  160  A    between atoms: _368  and  _371
REMARK  161  A    between atoms: _371  and  _372
REMARK  162  A    between atoms: _375  and  _377
REMARK  163  A    between atoms: _377  and  _378
REMARK  164  A    between atoms: _377  and  _380
REMARK  165  A    between atoms: _380  and  _381
REMARK  166  A    between atoms: _387  and  _389
REMARK  167  A    between atoms: _389  and  _390
REMARK  168  A    between atoms: _389  and  _392
REMARK  169  A    between atoms: _392  and  _393
REMARK  170  A    between atoms: _396  and  _398
REMARK  171  A    between atoms: _398  and  _399
REMARK  172  A    between atoms: _398  and  _401
REMARK  173  A    between atoms: _401  and  _402
REMARK  174  A    between atoms: _402  and  _403
REMARK  175  A    between atoms: _405  and  _407
REMARK  176  A    between atoms: _407  and  _408
REMARK  177  A    between atoms: _407  and  _410
REMARK  178  A    between atoms: _410  and  _411
REMARK  179  A    between atoms: _413  and  _415
REMARK  180  A    between atoms: _415  and  _416
REMARK  181  A    between atoms: _415  and  _418
REMARK  182  A    between atoms: _418  and  _419
REMARK  183  A    between atoms: _424  and  _426
REMARK  184  A    between atoms: _426  and  _427
REMARK  185  A    between atoms: _426  and  _429
REMARK  186  A    between atoms: _429  and  _430
REMARK  187  A    between atoms: _430  and  _431
REMARK  188  A    between atoms: _431  and  _432
REMARK  189  A    between atoms: _432  and  _433
REMARK  190  A    between atoms: _437  and  _439
REMARK  191  A    between atoms: _439  and  _440
REMARK  192  A    between atoms: _442  and  _444
REMARK  193  A    between atoms: _444  and  _445
REMARK  194  A    between atoms: _444  and  _447
REMARK  195  A    between atoms: _447  and  _448
REMARK  196  A    between atoms: _448  and  _449
REMARK  197  A    between atoms: _451  and  _453
REMARK  198  A    between atoms: _453  and  _454
REMARK  199  A    between atoms: _453  and  _456
REMARK  200  A    between atoms: _456  and  _457
REMARK  201  A    between atoms: _457  and  _458
REMARK  202  A    between atoms: _461  and  _463
REMARK  203  A    between atoms: _463  and  _464
REMARK  204  A    between atoms: _463  and  _466
REMARK  205  A    between atoms: _466  and  _467
REMARK  206  A    between atoms: _472  and  _474
REMARK  207  A    between atoms: _474  and  _475
REMARK  208  A    between atoms: _474  and  _477
REMARK  209  A    between atoms: _477  and  _478
REMARK  210  A    between atoms: _481  and  _483
REMARK  211  A    between atoms: _483  and  _484
REMARK  212  A    between atoms: _483  and  _486
REMARK  213  A    between atoms: _486  and  _487
REMARK  214  A    between atoms: _492  and  _493
REMARK  215  A    between atoms: _495  and  _497
REMARK  216  A    between atoms: _497  and  _498
REMARK  217  A    between atoms: _497  and  _500
REMARK  218  A    between atoms: _500  and  _501
REMARK  219  A    between atoms: _503  and  _505
REMARK  220  A    between atoms: _505  and  _506
REMARK  221  A    between atoms: _505  and  _508
REMARK  222  A    between atoms: _508  and  _509
REMARK  223  A    between atoms: _509  and  _510
REMARK  224  A    between atoms: _512  and  _514
REMARK  225  A    between atoms: _514  and  _515
REMARK  226  A    between atoms: _514  and  _517
REMARK  227  A    between atoms: _517  and  _518
REMARK  228  A    between atoms: _518  and  _519
REMARK  229  A    between atoms: _519  and  _520
REMARK  230  A    between atoms: _520  and  _521
REMARK  231  A    between atoms: _525  and  _527
REMARK  232  A    between atoms: _527  and  _528
REMARK  233  A    between atoms: _527  and  _530
REMARK  234  A    between atoms: _530  and  _531
REMARK  235  A    between atoms: _531  and  _532
REMARK  236  A    between atoms: _532  and  _533
REMARK  237  A    between atoms: _533  and  _534
REMARK  238  A    between atoms: _538  and  _540
REMARK  239  A    between atoms: _540  and  _541
REMARK  240  A    between atoms: _540  and  _543
REMARK  241  A    between atoms: _547  and  _548
REMARK  242  A    between atoms: _553  and  _555
REMARK  243  A    between atoms: _555  and  _556
REMARK  244  A    between atoms: _555  and  _558
REMARK  245  A    between atoms: _558  and  _559
REMARK  246  A    between atoms: _562  and  _564
REMARK  247  A    between atoms: _564  and  _565
REMARK  248  A    between atoms: _564  and  _567
REMARK  249  A    between atoms: _567  and  _568
REMARK  250  A    between atoms: _571  and  _573
REMARK  251  A    between atoms: _573  and  _574
REMARK  252  A    between atoms: _573  and  _576
REMARK  253  A    between atoms: _576  and  _577
REMARK  254  A    between atoms: _580  and  _582
REMARK  255  A    between atoms: _582  and  _583
REMARK  256  A    between atoms: _582  and  _585
REMARK  257  A    between atoms: _585  and  _586
REMARK  258  A    between atoms: _586  and  _587
REMARK                            x       y       z     vdW  Elec       q    Type
REMARK                         _______ _______ _______ _____ _____    ______ ____
ROOT
ATOM      1  O   HOH     1      20.746  -5.022  28.937  0.00  0.00    +0.000 OA
ENDROOT
TORSDOF 0
REMARK  Name = ../refined-set-2016/2ayr/2ayr_pocket.pdb
REMARK  258 active torsions:
REMARK  status: ('A' for Active; 'I' for Inactive)
REMARK    1  A    between atoms: _1  and  _3
REMARK    2  A    between atoms: _3  and  _4
REMARK    3  A    between atoms: _3  and  _6
REMARK    4  A    between atoms: _6  and  _7
REMARK    5  A    between atoms: _10  and  _12
REMARK    6  A    between atoms: _12  and  _13
REMARK    7  A    between atoms: _12  and  _15
REMARK    8  A    between atoms: _15  and  _16
REMARK    9  A    between atoms: _16  and  _17
REMARK   10  A    between atoms: _19  and  _21
REMARK   11  A    between atoms: _21  and  _22
REMARK   12  A    between atoms: _21  and  _24
REMARK   13  A    between atoms: _24  and  _25
REMARK   14  A    between atoms: _25  and  _26
REMARK   15  A    between atoms: _28  and  _30
REMARK   16  A    between atoms: _30  and  _31
REMARK   17  A    between atoms: _33  and  _35
REMARK   18  A    between atoms: _35  and  _36
REMARK   19  A    between atoms: _35  and  _38
REMARK   20  A    between atoms: _38  and  _39
REMARK   21  A    between atoms: _42  and  _44
REMARK   22  A    between atoms: _44  and  _45
REMARK   23  A    between atoms: _44  and  _47
REMARK   24  A    between atoms: _47  and  _48
REMARK   25  A    between atoms: _51  and  _53
REMARK   26  A    between atoms: _53  and  _54
REMARK   27  A    between atoms: _53  and  _56
REMARK   28  A    between atoms: _56  and  _57
REMARK   29  A    between atoms: _60  and  _62
REMARK   30  A    between atoms: _62  and  _63
REMARK   31  A    between atoms: _62  and  _65
REMARK   32  A    between atoms: _65  and  _66
REMARK   33  A    between atoms: _71  and  _73
REMARK   34  A    between atoms: _73  and  _74
REMARK   35  A    between atoms: _73  and  _76
REMARK   36  A    between atoms: _76  and  _77
REMARK   37  A    between atoms: _80  and  _82
REMARK   38  A    between atoms: _82  and  _83
REMARK   39  A    between atoms: _86  and  _88
REMARK   40  A    between atoms: _88  and  _89
REMARK   41  A    between atoms: _88  and  _91
REMARK   42  A    between atoms: _91  and  _92
REMARK   43  A    between atoms: _95  and  _97
REMARK   44  A    between atoms: _97  and  _98
REMARK   45  A    between atoms: _97  and  _100
REMARK   46  A    between atoms: _100  and  _101
REMARK   47  A    between atoms: _101  and  _102
REMARK   48  A    between atoms: _102  and  _103
REMARK   49  A    between atoms: _112  and  _114
REMARK   50  A    between atoms: _114  and  _115
REMARK   51  A    between atoms: _114  and  _117
REMARK   52  A    between atoms: _117  and  _118
REMARK   53  A    between atoms: _118  and  _119
REMARK   54  A    between atoms: _122  and  _124
REMARK   55  A    between atoms: _124  and  _125
REMARK   56  A    between atoms: _124  and  _127
REMARK   57  A    between atoms: _127  and  _128
REMARK   58  A    between atoms: _131  and  _133
REMARK   59  A    between atoms: _133  and  _134
REMARK   60  A    between atoms: _133  and  _136
REMARK   61  A    between atoms: _139  and  _141
REMARK   62  A    between atoms: _141  and  _142
REMARK   63  A    between atoms: _141  and  _144
REMARK   64  A    between atoms: _144  and  _145
REMARK   65  A    between atoms: _145  and  _146
REMARK   66  A    between atoms: _148  and  _150
REMARK   67  A    between atoms: _150  and  _151
REMARK   68  A    between atoms: _150  and  _153
REMARK   69  A    between atoms: _153  and  _154
REMARK   70  A    between atoms: _164  and  _166
REMARK   71  A    between atoms: _166  and  _167
REMARK   72  A    between atoms: _166  and  _169
REMARK   73  A    between atoms: _169  and  _170
REMARK   74  A    between atoms: _173  and  _175
REMARK   75  A    between atoms: _175  and  _176
REMARK   76  A    between atoms: _175  and  _178
REMARK   77  A    between atoms: _178  and  _179
REMARK   78  A    between atoms: _179  and  _180
REMARK   79  A    between atoms: _183  and  _185
REMARK   80  A    between atoms: _185  and  _186
REMARK   81  A    between atoms: _185  and  _188
REMARK   82  A    between atoms: _188  and  _189
REMARK   83  A    between atoms: _192  and  _194
REMARK   84  A    between atoms: _194  and  _195
REMARK   85  A    between atoms: _194  and  _197
REMARK   86  A    between atoms: _197  and  _198
REMARK   87  A    between atoms: _201  and  _203
REMARK   88  A    between atoms: _203  and  _204
REMARK   89  A    between atoms: _203  and  _206
REMARK   90  A    between atoms: _206  and  _207
REMARK   91  A    between atoms: _207  and  _208
REMARK   92  A    between atoms: _210  and  _212
REMARK   93  A    between atoms: _212  and  _213
REMARK   94  A    between atoms: _212  and  _215
REMARK   95  A    between atoms: _215  and  _216
REMARK   96  A    between atoms: _219  and  _221
REMARK   97  A    between atoms: _221  and  _222
REMARK   98  A    between atoms: _224  and  _226
REMARK   99  A    between atoms: _226  and  _227
REMARK  100  A    between atoms: _226  and  _229
REMARK  101  A    between atoms: _229  and  _230
REMARK  102  A    between atoms: _233  and  _235
REMARK  103  A    between atoms: _235  and  _236
REMARK  104  A    between atoms: _235  and  _238
REMARK  105  A    between atoms: _241  and  _243
REMARK  106  A    between atoms: _243  and  _244
REMARK  107  A    between atoms: _243  and  _246
REMARK  108  A    between atoms: _246  and  _247
REMARK  109  A    between atoms: _247  and  _248
REMARK  110  A    between atoms: _248  and  _249
REMARK  111  A    between atoms: _258  and  _260
REMARK  112  A    between atoms: _260  and  _261
REMARK  113  A    between atoms: _260  and  _263
REMARK  114  A    between atoms: _263  and  _264
REMARK  115  A    between atoms: _266  and  _268
REMARK  116  A    between atoms: _268  and  _269
REMARK  117  A    between atoms: _268  and  _271
REMARK  118  A    between atoms: _271  and  _272
REMARK  119  A    between atoms: _275  and  _277
REMARK  120  A    between atoms: _277  and  _278
REMARK  121  A    between atoms: _277  and  _280
REMARK  122  A    between atoms: _280  and  _281
REMARK  123  A    between atoms: _284  and  _286
REMARK  124  A    between atoms: _286  and  _287
REMARK  125  A    between atoms: _286  and  _289
REMARK  126  A    between atoms: _289  and  _290
REMARK  127  A    between atoms: _296  and  _298
REMARK  128  A    between atoms: _298  and  _299
REMARK  129  A    between atoms: _302  and  _304
REMARK  130  A    between atoms: _304  and  _305
REMARK  131  A    between atoms: _304  and  _307
REMARK  132  A    between atoms: _307  and  _308
REMARK  133  A    between atoms: _311  and  _313
REMARK  134  A    between atoms: _313  and  _314
REMARK  135  A    between atoms: _316  and  _318
REMARK  136  A    between atoms: _318  and  _319
REMARK  137  A    between atoms: _318  and  _321
REMARK  138  A    between atoms: _324  and  _326
REMARK  139  A    between atoms: _326  and  _327
REMARK  140  A    between atoms: _326  and  _329
REMARK  141  A    between atoms: _329  and  _330
REMARK  142  A    between atoms: _330  and  _331
REMARK  143  A    between atoms: _334  and  _336
REMARK  144  A    between atoms: _336  and  _337
REMARK  145  A    between atoms: _339  and  _341
REMARK  146  A    between atoms: _341  and  _342
REMARK  147  A    between atoms: _341  and  _344
REMARK  148  A    between atoms: _344  and  _345
REMARK  149  A    between atoms: _345  and  _346
REMARK  150  A    between atoms: _348  and  _350
REMARK  151  A    between atoms: _350  and  _351
REMARK  152  A    between atoms: _350  and  _353
REMARK  153  A    between atoms: _356  and  _358
REMARK  154  A    between atoms: _358  and  _359
REMARK  155  A    between atoms: _358  and  _361
REMARK  156  A    between atoms: _361  and  _362
REMARK  157  A    between atoms: _362  and  _363
REMARK  158  A    between atoms: _366  and  _368
REMARK  159  A    between atoms: _368  and  _369
REMARK  160  A    between atoms: _368  and  _371
REMARK  161  A    between atoms: _371  and  _372
REMARK  162  A    between atoms: _375  and  _377
REMARK  163  A    between atoms: _377  and  _378
REMARK  164  A    between atoms: _377  and  _380
REMARK  165  A    between atoms: _380  and  _381
REMARK  166  A    between atoms: _387  and  _389
REMARK  167  A    between atoms: _389  and  _390
REMARK  168  A    between atoms: _389  and  _392
REMARK  169  A    between atoms: _392  and  _393
REMARK  170  A    between atoms: _396  and  _398
REMARK  171  A    between atoms: _398  and  _399
REMARK  172  A    between atoms: _398  and  _401
REMARK  173  A    between atoms: _401  and  _402
REMARK  174  A    between atoms: _402  and  _403
REMARK  175  A    between atoms: _405  and  _407
REMARK  176  A    between atoms: _407  and  _408
REMARK  177  A    between atoms: _407  and  _410
REMARK  178  A    between atoms: _410  and  _411
REMARK  179  A    between atoms: _413  and  _415
REMARK  180  A    between atoms: _415  and  _416
REMARK  181  A    between atoms: _415  and  _418
REMARK  182  A    between atoms: _418  and  _419
REMARK  183  A    between atoms: _424  and  _426
REMARK  184  A    between atoms: _426  and  _427
REMARK  185  A    between atoms: _426  and  _429
REMARK  186  A    between atoms: _429  and  _430
REMARK  187  A    between atoms: _430  and  _431
REMARK  188  A    between atoms: _431  and  _432
REMARK  189  A    between atoms: _432  and  _433
REMARK  190  A    between atoms: _437  and  _439
REMARK  191  A    between atoms: _439  and  _440
REMARK  192  A    between atoms: _442  and  _444
REMARK  193  A    between atoms: _444  and  _445
REMARK  194  A    between atoms: _444  and  _447
REMARK  195  A    between atoms: _447  and  _448
REMARK  196  A    between atoms: _448  and  _449
REMARK  197  A    between atoms: _451  and  _453
REMARK  198  A    between atoms: _453  and  _454
REMARK  199  A    between atoms: _453  and  _456
REMARK  200  A    between atoms: _456  and  _457
REMARK  201  A    between atoms: _457  and  _458
REMARK  202  A    between atoms: _461  and  _463
REMARK  203  A    between atoms: _463  and  _464
REMARK  204  A    between atoms: _463  and  _466
REMARK  205  A    between atoms: _466  and  _467
REMARK  206  A    between atoms: _472  and  _474
REMARK  207  A    between atoms: _474  and  _475
REMARK  208  A    between atoms: _474  and  _477
REMARK  209  A    between atoms: _477  and  _478
REMARK  210  A    between atoms: _481  and  _483
REMARK  211  A    between atoms: _483  and  _484
REMARK  212  A    between atoms: _483  and  _486
REMARK  213  A    between atoms: _486  and  _487
REMARK  214  A    between atoms: _492  and  _493
REMARK  215  A    between atoms: _495  and  _497
REMARK  216  A    between atoms: _497  and  _498
REMARK  217  A    between atoms: _497  and  _500
REMARK  218  A    between atoms: _500  and  _501
REMARK  219  A    between atoms: _503  and  _505
REMARK  220  A    between atoms: _505  and  _506
REMARK  221  A    between atoms: _505  and  _508
REMARK  222  A    between atoms: _508  and  _509
REMARK  223  A    between atoms: _509  and  _510
REMARK  224  A    between atoms: _512  and  _514
REMARK  225  A    between atoms: _514  and  _515
REMARK  226  A    between atoms: _514  and  _517
REMARK  227  A    between atoms: _517  and  _518
REMARK  228  A    between atoms: _518  and  _519
REMARK  229  A    between atoms: _519  and  _520
REMARK  230  A    between atoms: _520  and  _521
REMARK  231  A    between atoms: _525  and  _527
REMARK  232  A    between atoms: _527  and  _528
REMARK  233  A    between atoms: _527  and  _530
REMARK  234  A    between atoms: _530  and  _531
REMARK  235  A    between atoms: _531  and  _532
REMARK  236  A    between atoms: _532  and  _533
REMARK  237  A    between atoms: _533  and  _534
REMARK  238  A    between atoms: _538  and  _540
REMARK  239  A    between atoms: _540  and  _541
REMARK  240  A    between atoms: _540  and  _543
REMARK  241  A    between atoms: _547  and  _548
REMARK  242  A    between atoms: _553  and  _555
REMARK  243  A    between atoms: _555  and  _556
REMARK  244  A    between atoms: _555  and  _558
REMARK  245  A    between atoms: _558  and  _559
REMARK  246  A    between atoms: _562  and  _564
REMARK  247  A    between atoms: _564  and  _565
REMARK  248  A    between atoms: _564  and  _567
REMARK  249  A    between atoms: _567  and  _568
REMARK  250  A    between atoms: _571  and  _573
REMARK  251  A    between atoms: _573  and  _574
REMARK  252  A    between atoms: _573  and  _576
REMARK  253  A    between atoms: _576  and  _577
REMARK  254  A    between atoms: _580  and  _582
REMARK  255  A    between atoms: _582  and  _583
REMARK  256  A    between atoms: _582  and  _585
REMARK  257  A    between atoms: _585  and  _586
REMARK  258  A    between atoms: _586  and  _587
REMARK                            x       y       z     vdW  Elec       q    Type
REMARK                         _______ _______ _______ _____ _____    ______ ____
ROOT
ATOM      1  O   HOH     1      20.281  -4.117  26.335  0.00  0.00    +0.000 OA
ENDROOT
TORSDOF 0
REMARK  Name = ../refined-set-2016/2ayr/2ayr_pocket.pdb
REMARK  258 active torsions:
REMARK  status: ('A' for Active; 'I' for Inactive)
REMARK    1  A    between atoms: _1  and  _3
REMARK    2  A    between atoms: _3  and  _4
REMARK    3  A    between atoms: _3  and  _6
REMARK    4  A    between atoms: _6  and  _7
REMARK    5  A    between atoms: _10  and  _12
REMARK    6  A    between atoms: _12  and  _13
REMARK    7  A    between atoms: _12  and  _15
REMARK    8  A    between atoms: _15  and  _16
REMARK    9  A    between atoms: _16  and  _17
REMARK   10  A    between atoms: _19  and  _21
REMARK   11  A    between atoms: _21  and  _22
REMARK   12  A    between atoms: _21  and  _24
REMARK   13  A    between atoms: _24  and  _25
REMARK   14  A    between atoms: _25  and  _26
REMARK   15  A    between atoms: _28  and  _30
REMARK   16  A    between atoms: _30  and  _31
REMARK   17  A    between atoms: _33  and  _35
REMARK   18  A    between atoms: _35  and  _36
REMARK   19  A    between atoms: _35  and  _38
REMARK   20  A    between atoms: _38  and  _39
REMARK   21  A    between atoms: _42  and  _44
REMARK   22  A    between atoms: _44  and  _45
REMARK   23  A    between atoms: _44  and  _47
REMARK   24  A    between atoms: _47  and  _48
REMARK   25  A    between atoms: _51  and  _53
REMARK   26  A    between atoms: _53  and  _54
REMARK   27  A    between atoms: _53  and  _56
REMARK   28  A    between atoms: _56  and  _57
REMARK   29  A    between atoms: _60  and  _62
REMARK   30  A    between atoms: _62  and  _63
REMARK   31  A    between atoms: _62  and  _65
REMARK   32  A    between atoms: _65  and  _66
REMARK   33  A    between atoms: _71  and  _73
REMARK   34  A    between atoms: _73  and  _74
REMARK   35  A    between atoms: _73  and  _76
REMARK   36  A    between atoms: _76  and  _77
REMARK   37  A    between atoms: _80  and  _82
REMARK   38  A    between atoms: _82  and  _83
REMARK   39  A    between atoms: _86  and  _88
REMARK   40  A    between atoms: _88  and  _89
REMARK   41  A    between atoms: _88  and  _91
REMARK   42  A    between atoms: _91  and  _92
REMARK   43  A    between atoms: _95  and  _97
REMARK   44  A    between atoms: _97  and  _98
REMARK   45  A    between atoms: _97  and  _100
REMARK   46  A    between atoms: _100  and  _101
REMARK   47  A    between atoms: _101  and  _102
REMARK   48  A    between atoms: _102  and  _103
REMARK   49  A    between atoms: _112  and  _114
REMARK   50  A    between atoms: _114  and  _115
REMARK   51  A    between atoms: _114  and  _117
REMARK   52  A    between atoms: _117  and  _118
REMARK   53  A    between atoms: _118  and  _119
REMARK   54  A    between atoms: _122  and  _124
REMARK   55  A    between atoms: _124  and  _125
REMARK   56  A    between atoms: _124  and  _127
REMARK   57  A    between atoms: _127  and  _128
REMARK   58  A    between atoms: _131  and  _133
REMARK   59  A    between atoms: _133  and  _134
REMARK   60  A    between atoms: _133  and  _136
REMARK   61  A    between atoms: _139  and  _141
REMARK   62  A    between atoms: _141  and  _142
REMARK   63  A    between atoms: _141  and  _144
REMARK   64  A    between atoms: _144  and  _145
REMARK   65  A    between atoms: _145  and  _146
REMARK   66  A    between atoms: _148  and  _150
REMARK   67  A    between atoms: _150  and  _151
REMARK   68  A    between atoms: _150  and  _153
REMARK   69  A    between atoms: _153  and  _154
REMARK   70  A    between atoms: _164  and  _166
REMARK   71  A    between atoms: _166  and  _167
REMARK   72  A    between atoms: _166  and  _169
REMARK   73  A    between atoms: _169  and  _170
REMARK   74  A    between atoms: _173  and  _175
REMARK   75  A    between atoms: _175  and  _176
REMARK   76  A    between atoms: _175  and  _178
REMARK   77  A    between atoms: _178  and  _179
REMARK   78  A    between atoms: _179  and  _180
REMARK   79  A    between atoms: _183  and  _185
REMARK   80  A    between atoms: _185  and  _186
REMARK   81  A    between atoms: _185  and  _188
REMARK   82  A    between atoms: _188  and  _189
REMARK   83  A    between atoms: _192  and  _194
REMARK   84  A    between atoms: _194  and  _195
REMARK   85  A    between atoms: _194  and  _197
REMARK   86  A    between atoms: _197  and  _198
REMARK   87  A    between atoms: _201  and  _203
REMARK   88  A    between atoms: _203  and  _204
REMARK   89  A    between atoms: _203  and  _206
REMARK   90  A    between atoms: _206  and  _207
REMARK   91  A    between atoms: _207  and  _208
REMARK   92  A    between atoms: _210  and  _212
REMARK   93  A    between atoms: _212  and  _213
REMARK   94  A    between atoms: _212  and  _215
REMARK   95  A    between atoms: _215  and  _216
REMARK   96  A    between atoms: _219  and  _221
REMARK   97  A    between atoms: _221  and  _222
REMARK   98  A    between atoms: _224  and  _226
REMARK   99  A    between atoms: _226  and  _227
REMARK  100  A    between atoms: _226  and  _229
REMARK  101  A    between atoms: _229  and  _230
REMARK  102  A    between atoms: _233  and  _235
REMARK  103  A    between atoms: _235  and  _236
REMARK  104  A    between atoms: _235  and  _238
REMARK  105  A    between atoms: _241  and  _243
REMARK  106  A    between atoms: _243  and  _244
REMARK  107  A    between atoms: _243  and  _246
REMARK  108  A    between atoms: _246  and  _247
REMARK  109  A    between atoms: _247  and  _248
REMARK  110  A    between atoms: _248  and  _249
REMARK  111  A    between atoms: _258  and  _260
REMARK  112  A    between atoms: _260  and  _261
REMARK  113  A    between atoms: _260  and  _263
REMARK  114  A    between atoms: _263  and  _264
REMARK  115  A    between atoms: _266  and  _268
REMARK  116  A    between atoms: _268  and  _269
REMARK  117  A    between atoms: _268  and  _271
REMARK  118  A    between atoms: _271  and  _272
REMARK  119  A    between atoms: _275  and  _277
REMARK  120  A    between atoms: _277  and  _278
REMARK  121  A    between atoms: _277  and  _280
REMARK  122  A    between atoms: _280  and  _281
REMARK  123  A    between atoms: _284  and  _286
REMARK  124  A    between atoms: _286  and  _287
REMARK  125  A    between atoms: _286  and  _289
REMARK  126  A    between atoms: _289  and  _290
REMARK  127  A    between atoms: _296  and  _298
REMARK  128  A    between atoms: _298  and  _299
REMARK  129  A    between atoms: _302  and  _304
REMARK  130  A    between atoms: _304  and  _305
REMARK  131  A    between atoms: _304  and  _307
REMARK  132  A    between atoms: _307  and  _308
REMARK  133  A    between atoms: _311  and  _313
REMARK  134  A    between atoms: _313  and  _314
REMARK  135  A    between atoms: _316  and  _318
REMARK  136  A    between atoms: _318  and  _319
REMARK  137  A    between atoms: _318  and  _321
REMARK  138  A    between atoms: _324  and  _326
REMARK  139  A    between atoms: _326  and  _327
REMARK  140  A    between atoms: _326  and  _329
REMARK  141  A    between atoms: _329  and  _330
REMARK  142  A    between atoms: _330  and  _331
REMARK  143  A    between atoms: _334  and  _336
REMARK  144  A    between atoms: _336  and  _337
REMARK  145  A    between atoms: _339  and  _341
REMARK  146  A    between atoms: _341  and  _342
REMARK  147  A    between atoms: _341  and  _344
REMARK  148  A    between atoms: _344  and  _345
REMARK  149  A    between atoms: _345  and  _346
REMARK  150  A    between atoms: _348  and  _350
REMARK  151  A    between atoms: _350  and  _351
REMARK  152  A    between atoms: _350  and  _353
REMARK  153  A    between atoms: _356  and  _358
REMARK  154  A    between atoms: _358  and  _359
REMARK  155  A    between atoms: _358  and  _361
REMARK  156  A    between atoms: _361  and  _362
REMARK  157  A    between atoms: _362  and  _363
REMARK  158  A    between atoms: _366  and  _368
REMARK  159  A    between atoms: _368  and  _369
REMARK  160  A    between atoms: _368  and  _371
REMARK  161  A    between atoms: _371  and  _372
REMARK  162  A    between atoms: _375  and  _377
REMARK  163  A    between atoms: _377  and  _378
REMARK  164  A    between atoms: _377  and  _380
REMARK  165  A    between atoms: _380  and  _381
REMARK  166  A    between atoms: _387  and  _389
REMARK  167  A    between atoms: _389  and  _390
REMARK  168  A    between atoms: _389  and  _392
REMARK  169  A    between atoms: _392  and  _393
REMARK  170  A    between atoms: _396  and  _398
REMARK  171  A    between atoms: _398  and  _399
REMARK  172  A    between atoms: _398  and  _401
REMARK  173  A    between atoms: _401  and  _402
REMARK  174  A    between atoms: _402  and  _403
REMARK  175  A    between atoms: _405  and  _407
REMARK  176  A    between atoms: _407  and  _408
REMARK  177  A    between atoms: _407  and  _410
REMARK  178  A    between atoms: _410  and  _411
REMARK  179  A    between atoms: _413  and  _415
REMARK  180  A    between atoms: _415  and  _416
REMARK  181  A    between atoms: _415  and  _418
REMARK  182  A    between atoms: _418  and  _419
REMARK  183  A    between atoms: _424  and  _426
REMARK  184  A    between atoms: _426  and  _427
REMARK  185  A    between atoms: _426  and  _429
REMARK  186  A    between atoms: _429  and  _430
REMARK  187  A    between atoms: _430  and  _431
REMARK  188  A    between atoms: _431  and  _432
REMARK  189  A    between atoms: _432  and  _433
REMARK  190  A    between atoms: _437  and  _439
REMARK  191  A    between atoms: _439  and  _440
REMARK  192  A    between atoms: _442  and  _444
REMARK  193  A    between atoms: _444  and  _445
REMARK  194  A    between atoms: _444  and  _447
REMARK  195  A    between atoms: _447  and  _448
REMARK  196  A    between atoms: _448  and  _449
REMARK  197  A    between atoms: _451  and  _453
REMARK  198  A    between atoms: _453  and  _454
REMARK  199  A    between atoms: _453  and  _456
REMARK  200  A    between atoms: _456  and  _457
REMARK  201  A    between atoms: _457  and  _458
REMARK  202  A    between atoms: _461  and  _463
REMARK  203  A    between atoms: _463  and  _464
REMARK  204  A    between atoms: _463  and  _466
REMARK  205  A    between atoms: _466  and  _467
REMARK  206  A    between atoms: _472  and  _474
REMARK  207  A    between atoms: _474  and  _475
REMARK  208  A    between atoms: _474  and  _477
REMARK  209  A    between atoms: _477  and  _478
REMARK  210  A    between atoms: _481  and  _483
REMARK  211  A    between atoms: _483  and  _484
REMARK  212  A    between atoms: _483  and  _486
REMARK  213  A    between atoms: _486  and  _487
REMARK  214  A    between atoms: _492  and  _493
REMARK  215  A    between atoms: _495  and  _497
REMARK  216  A    between atoms: _497  and  _498
REMARK  217  A    between atoms: _497  and  _500
REMARK  218  A    between atoms: _500  and  _501
REMARK  219  A    between atoms: _503  and  _505
REMARK  220  A    between atoms: _505  and  _506
REMARK  221  A    between atoms: _505  and  _508
REMARK  222  A    between atoms: _508  and  _509
REMARK  223  A    between atoms: _509  and  _510
REMARK  224  A    between atoms: _512  and  _514
REMARK  225  A    between atoms: _514  and  _515
REMARK  226  A    between atoms: _514  and  _517
REMARK  227  A    between atoms: _517  and  _518
REMARK  228  A    between atoms: _518  and  _519
REMARK  229  A    between atoms: _519  and  _520
REMARK  230  A    between atoms: _520  and  _521
REMARK  231  A    between atoms: _525  and  _527
REMARK  232  A    between atoms: _527  and  _528
REMARK  233  A    between atoms: _527  and  _530
REMARK  234  A    between atoms: _530  and  _531
REMARK  235  A    between atoms: _531  and  _532
REMARK  236  A    between atoms: _532  and  _533
REMARK  237  A    between atoms: _533  and  _534
REMARK  238  A    between atoms: _538  and  _540
REMARK  239  A    between atoms: _540  and  _541
REMARK  240  A    between atoms: _540  and  _543
REMARK  241  A    between atoms: _547  and  _548
REMARK  242  A    between atoms: _553  and  _555
REMARK  243  A    between atoms: _555  and  _556
REMARK  244  A    between atoms: _555  and  _558
REMARK  245  A    between atoms: _558  and  _559
REMARK  246  A    between atoms: _562  and  _564
REMARK  247  A    between atoms: _564  and  _565
REMARK  248  A    between atoms: _564  and  _567
REMARK  249  A    between atoms: _567  and  _568
REMARK  250  A    between atoms: _571  and  _573
REMARK  251  A    between atoms: _573  and  _574
REMARK  252  A    between atoms: _573  and  _576
REMARK  253  A    between atoms: _576  and  _577
REMARK  254  A    between atoms: _580  and  _582
REMARK  255  A    between atoms: _582  and  _583
REMARK  256  A    between atoms: _582  and  _585
REMARK  257  A    between atoms: _585  and  _586
REMARK  258  A    between atoms: _586  and  _587
REMARK                            x       y       z     vdW  Elec       q    Type
REMARK                         _______ _______ _______ _____ _____    ______ ____
ROOT
ATOM      1  O   HOH     1      18.680   2.021  24.461  0.00  0.00    +0.000 OA
ENDROOT
TORSDOF 0
REMARK  Name = ../refined-set-2016/2ayr/2ayr_pocket.pdb
REMARK  258 active torsions:
REMARK  status: ('A' for Active; 'I' for Inactive)
REMARK    1  A    between atoms: _1  and  _3
REMARK    2  A    between atoms: _3  and  _4
REMARK    3  A    between atoms: _3  and  _6
REMARK    4  A    between atoms: _6  and  _7
REMARK    5  A    between atoms: _10  and  _12
REMARK    6  A    between atoms: _12  and  _13
REMARK    7  A    between atoms: _12  and  _15
REMARK    8  A    between atoms: _15  and  _16
REMARK    9  A    between atoms: _16  and  _17
REMARK   10  A    between atoms: _19  and  _21
REMARK   11  A    between atoms: _21  and  _22
REMARK   12  A    between atoms: _21  and  _24
REMARK   13  A    between atoms: _24  and  _25
REMARK   14  A    between atoms: _25  and  _26
REMARK   15  A    between atoms: _28  and  _30
REMARK   16  A    between atoms: _30  and  _31
REMARK   17  A    between atoms: _33  and  _35
REMARK   18  A    between atoms: _35  and  _36
REMARK   19  A    between atoms: _35  and  _38
REMARK   20  A    between atoms: _38  and  _39
REMARK   21  A    between atoms: _42  and  _44
REMARK   22  A    between atoms: _44  and  _45
REMARK   23  A    between atoms: _44  and  _47
REMARK   24  A    between atoms: _47  and  _48
REMARK   25  A    between atoms: _51  and  _53
REMARK   26  A    between atoms: _53  and  _54
REMARK   27  A    between atoms: _53  and  _56
REMARK   28  A    between atoms: _56  and  _57
REMARK   29  A    between atoms: _60  and  _62
REMARK   30  A    between atoms: _62  and  _63
REMARK   31  A    between atoms: _62  and  _65
REMARK   32  A    between atoms: _65  and  _66
REMARK   33  A    between atoms: _71  and  _73
REMARK   34  A    between atoms: _73  and  _74
REMARK   35  A    between atoms: _73  and  _76
REMARK   36  A    between atoms: _76  and  _77
REMARK   37  A    between atoms: _80  and  _82
REMARK   38  A    between atoms: _82  and  _83
REMARK   39  A    between atoms: _86  and  _88
REMARK   40  A    between atoms: _88  and  _89
REMARK   41  A    between atoms: _88  and  _91
REMARK   42  A    between atoms: _91  and  _92
REMARK   43  A    between atoms: _95  and  _97
REMARK   44  A    between atoms: _97  and  _98
REMARK   45  A    between atoms: _97  and  _100
REMARK   46  A    between atoms: _100  and  _101
REMARK   47  A    between atoms: _101  and  _102
REMARK   48  A    between atoms: _102  and  _103
REMARK   49  A    between atoms: _112  and  _114
REMARK   50  A    between atoms: _114  and  _115
REMARK   51  A    between atoms: _114  and  _117
REMARK   52  A    between atoms: _117  and  _118
REMARK   53  A    between atoms: _118  and  _119
REMARK   54  A    between atoms: _122  and  _124
REMARK   55  A    between atoms: _124  and  _125
REMARK   56  A    between atoms: _124  and  _127
REMARK   57  A    between atoms: _127  and  _128
REMARK   58  A    between atoms: _131  and  _133
REMARK   59  A    between atoms: _133  and  _134
REMARK   60  A    between atoms: _133  and  _136
REMARK   61  A    between atoms: _139  and  _141
REMARK   62  A    between atoms: _141  and  _142
REMARK   63  A    between atoms: _141  and  _144
REMARK   64  A    between atoms: _144  and  _145
REMARK   65  A    between atoms: _145  and  _146
REMARK   66  A    between atoms: _148  and  _150
REMARK   67  A    between atoms: _150  and  _151
REMARK   68  A    between atoms: _150  and  _153
REMARK   69  A    between atoms: _153  and  _154
REMARK   70  A    between atoms: _164  and  _166
REMARK   71  A    between atoms: _166  and  _167
REMARK   72  A    between atoms: _166  and  _169
REMARK   73  A    between atoms: _169  and  _170
REMARK   74  A    between atoms: _173  and  _175
REMARK   75  A    between atoms: _175  and  _176
REMARK   76  A    between atoms: _175  and  _178
REMARK   77  A    between atoms: _178  and  _179
REMARK   78  A    between atoms: _179  and  _180
REMARK   79  A    between atoms: _183  and  _185
REMARK   80  A    between atoms: _185  and  _186
REMARK   81  A    between atoms: _185  and  _188
REMARK   82  A    between atoms: _188  and  _189
REMARK   83  A    between atoms: _192  and  _194
REMARK   84  A    between atoms: _194  and  _195
REMARK   85  A    between atoms: _194  and  _197
REMARK   86  A    between atoms: _197  and  _198
REMARK   87  A    between atoms: _201  and  _203
REMARK   88  A    between atoms: _203  and  _204
REMARK   89  A    between atoms: _203  and  _206
REMARK   90  A    between atoms: _206  and  _207
REMARK   91  A    between atoms: _207  and  _208
REMARK   92  A    between atoms: _210  and  _212
REMARK   93  A    between atoms: _212  and  _213
REMARK   94  A    between atoms: _212  and  _215
REMARK   95  A    between atoms: _215  and  _216
REMARK   96  A    between atoms: _219  and  _221
REMARK   97  A    between atoms: _221  and  _222
REMARK   98  A    between atoms: _224  and  _226
REMARK   99  A    between atoms: _226  and  _227
REMARK  100  A    between atoms: _226  and  _229
REMARK  101  A    between atoms: _229  and  _230
REMARK  102  A    between atoms: _233  and  _235
REMARK  103  A    between atoms: _235  and  _236
REMARK  104  A    between atoms: _235  and  _238
REMARK  105  A    between atoms: _241  and  _243
REMARK  106  A    between atoms: _243  and  _244
REMARK  107  A    between atoms: _243  and  _246
REMARK  108  A    between atoms: _246  and  _247
REMARK  109  A    between atoms: _247  and  _248
REMARK  110  A    between atoms: _248  and  _249
REMARK  111  A    between atoms: _258  and  _260
REMARK  112  A    between atoms: _260  and  _261
REMARK  113  A    between atoms: _260  and  _263
REMARK  114  A    between atoms: _263  and  _264
REMARK  115  A    between atoms: _266  and  _268
REMARK  116  A    between atoms: _268  and  _269
REMARK  117  A    between atoms: _268  and  _271
REMARK  118  A    between atoms: _271  and  _272
REMARK  119  A    between atoms: _275  and  _277
REMARK  120  A    between atoms: _277  and  _278
REMARK  121  A    between atoms: _277  and  _280
REMARK  122  A    between atoms: _280  and  _281
REMARK  123  A    between atoms: _284  and  _286
REMARK  124  A    between atoms: _286  and  _287
REMARK  125  A    between atoms: _286  and  _289
REMARK  126  A    between atoms: _289  and  _290
REMARK  127  A    between atoms: _296  and  _298
REMARK  128  A    between atoms: _298  and  _299
REMARK  129  A    between atoms: _302  and  _304
REMARK  130  A    between atoms: _304  and  _305
REMARK  131  A    between atoms: _304  and  _307
REMARK  132  A    between atoms: _307  and  _308
REMARK  133  A    between atoms: _311  and  _313
REMARK  134  A    between atoms: _313  and  _314
REMARK  135  A    between atoms: _316  and  _318
REMARK  136  A    between atoms: _318  and  _319
REMARK  137  A    between atoms: _318  and  _321
REMARK  138  A    between atoms: _324  and  _326
REMARK  139  A    between atoms: _326  and  _327
REMARK  140  A    between atoms: _326  and  _329
REMARK  141  A    between atoms: _329  and  _330
REMARK  142  A    between atoms: _330  and  _331
REMARK  143  A    between atoms: _334  and  _336
REMARK  144  A    between atoms: _336  and  _337
REMARK  145  A    between atoms: _339  and  _341
REMARK  146  A    between atoms: _341  and  _342
REMARK  147  A    between atoms: _341  and  _344
REMARK  148  A    between atoms: _344  and  _345
REMARK  149  A    between atoms: _345  and  _346
REMARK  150  A    between atoms: _348  and  _350
REMARK  151  A    between atoms: _350  and  _351
REMARK  152  A    between atoms: _350  and  _353
REMARK  153  A    between atoms: _356  and  _358
REMARK  154  A    between atoms: _358  and  _359
REMARK  155  A    between atoms: _358  and  _361
REMARK  156  A    between atoms: _361  and  _362
REMARK  157  A    between atoms: _362  and  _363
REMARK  158  A    between atoms: _366  and  _368
REMARK  159  A    between atoms: _368  and  _369
REMARK  160  A    between atoms: _368  and  _371
REMARK  161  A    between atoms: _371  and  _372
REMARK  162  A    between atoms: _375  and  _377
REMARK  163  A    between atoms: _377  and  _378
REMARK  164  A    between atoms: _377  and  _380
REMARK  165  A    between atoms: _380  and  _381
REMARK  166  A    between atoms: _387  and  _389
REMARK  167  A    between atoms: _389  and  _390
REMARK  168  A    between atoms: _389  and  _392
REMARK  169  A    between atoms: _392  and  _393
REMARK  170  A    between atoms: _396  and  _398
REMARK  171  A    between atoms: _398  and  _399
REMARK  172  A    between atoms: _398  and  _401
REMARK  173  A    between atoms: _401  and  _402
REMARK  174  A    between atoms: _402  and  _403
REMARK  175  A    between atoms: _405  and  _407
REMARK  176  A    between atoms: _407  and  _408
REMARK  177  A    between atoms: _407  and  _410
REMARK  178  A    between atoms: _410  and  _411
REMARK  179  A    between atoms: _413  and  _415
REMARK  180  A    between atoms: _415  and  _416
REMARK  181  A    between atoms: _415  and  _418
REMARK  182  A    between atoms: _418  and  _419
REMARK  183  A    between atoms: _424  and  _426
REMARK  184  A    between atoms: _426  and  _427
REMARK  185  A    between atoms: _426  and  _429
REMARK  186  A    between atoms: _429  and  _430
REMARK  187  A    between atoms: _430  and  _431
REMARK  188  A    between atoms: _431  and  _432
REMARK  189  A    between atoms: _432  and  _433
REMARK  190  A    between atoms: _437  and  _439
REMARK  191  A    between atoms: _439  and  _440
REMARK  192  A    between atoms: _442  and  _444
REMARK  193  A    between atoms: _444  and  _445
REMARK  194  A    between atoms: _444  and  _447
REMARK  195  A    between atoms: _447  and  _448
REMARK  196  A    between atoms: _448  and  _449
REMARK  197  A    between atoms: _451  and  _453
REMARK  198  A    between atoms: _453  and  _454
REMARK  199  A    between atoms: _453  and  _456
REMARK  200  A    between atoms: _456  and  _457
REMARK  201  A    between atoms: _457  and  _458
REMARK  202  A    between atoms: _461  and  _463
REMARK  203  A    between atoms: _463  and  _464
REMARK  204  A    between atoms: _463  and  _466
REMARK  205  A    between atoms: _466  and  _467
REMARK  206  A    between atoms: _472  and  _474
REMARK  207  A    between atoms: _474  and  _475
REMARK  208  A    between atoms: _474  and  _477
REMARK  209  A    between atoms: _477  and  _478
REMARK  210  A    between atoms: _481  and  _483
REMARK  211  A    between atoms: _483  and  _484
REMARK  212  A    between atoms: _483  and  _486
REMARK  213  A    between atoms: _486  and  _487
REMARK  214  A    between atoms: _492  and  _493
REMARK  215  A    between atoms: _495  and  _497
REMARK  216  A    between atoms: _497  and  _498
REMARK  217  A    between atoms: _497  and  _500
REMARK  218  A    between atoms: _500  and  _501
REMARK  219  A    between atoms: _503  and  _505
REMARK  220  A    between atoms: _505  and  _506
REMARK  221  A    between atoms: _505  and  _508
REMARK  222  A    between atoms: _508  and  _509
REMARK  223  A    between atoms: _509  and  _510
REMARK  224  A    between atoms: _512  and  _514
REMARK  225  A    between atoms: _514  and  _515
REMARK  226  A    between atoms: _514  and  _517
REMARK  227  A    between atoms: _517  and  _518
REMARK  228  A    between atoms: _518  and  _519
REMARK  229  A    between atoms: _519  and  _520
REMARK  230  A    between atoms: _520  and  _521
REMARK  231  A    between atoms: _525  and  _527
REMARK  232  A    between atoms: _527  and  _528
REMARK  233  A    between atoms: _527  and  _530
REMARK  234  A    between atoms: _530  and  _531
REMARK  235  A    between atoms: _531  and  _532
REMARK  236  A    between atoms: _532  and  _533
REMARK  237  A    between atoms: _533  and  _534
REMARK  238  A    between atoms: _538  and  _540
REMARK  239  A    between atoms: _540  and  _541
REMARK  240  A    between atoms: _540  and  _543
REMARK  241  A    between atoms: _547  and  _548
REMARK  242  A    between atoms: _553  and  _555
REMARK  243  A    between atoms: _555  and  _556
REMARK  244  A    between atoms: _555  and  _558
REMARK  245  A    between atoms: _558  and  _559
REMARK  246  A    between atoms: _562  and  _564
REMARK  247  A    between atoms: _564  and  _565
REMARK  248  A    between atoms: _564  and  _567
REMARK  249  A    between atoms: _567  and  _568
REMARK  250  A    between atoms: _571  and  _573
REMARK  251  A    between atoms: _573  and  _574
REMARK  252  A    between atoms: _573  and  _576
REMARK  253  A    between atoms: _576  and  _577
REMARK  254  A    between atoms: _580  and  _582
REMARK  255  A    between atoms: _582  and  _583
REMARK  256  A    between atoms: _582  and  _585
REMARK  257  A    between atoms: _585  and  _586
REMARK  258  A    between atoms: _586  and  _587
REMARK                            x       y       z     vdW  Elec       q    Type
REMARK                         _______ _______ _______ _____ _____    ______ ____
ROOT
ATOM      1  O   HOH     1      21.224   1.404  23.722  0.00  0.00    +0.000 OA
ENDROOT
TORSDOF 0
REMARK  Name = ../refined-set-2016/2ayr/2ayr_pocket.pdb
REMARK  258 active torsions:
REMARK  status: ('A' for Active; 'I' for Inactive)
REMARK    1  A    between atoms: _1  and  _3
REMARK    2  A    between atoms: _3  and  _4
REMARK    3  A    between atoms: _3  and  _6
REMARK    4  A    between atoms: _6  and  _7
REMARK    5  A    between atoms: _10  and  _12
REMARK    6  A    between atoms: _12  and  _13
REMARK    7  A    between atoms: _12  and  _15
REMARK    8  A    between atoms: _15  and  _16
REMARK    9  A    between atoms: _16  and  _17
REMARK   10  A    between atoms: _19  and  _21
REMARK   11  A    between atoms: _21  and  _22
REMARK   12  A    between atoms: _21  and  _24
REMARK   13  A    between atoms: _24  and  _25
REMARK   14  A    between atoms: _25  and  _26
REMARK   15  A    between atoms: _28  and  _30
REMARK   16  A    between atoms: _30  and  _31
REMARK   17  A    between atoms: _33  and  _35
REMARK   18  A    between atoms: _35  and  _36
REMARK   19  A    between atoms: _35  and  _38
REMARK   20  A    between atoms: _38  and  _39
REMARK   21  A    between atoms: _42  and  _44
REMARK   22  A    between atoms: _44  and  _45
REMARK   23  A    between atoms: _44  and  _47
REMARK   24  A    between atoms: _47  and  _48
REMARK   25  A    between atoms: _51  and  _53
REMARK   26  A    between atoms: _53  and  _54
REMARK   27  A    between atoms: _53  and  _56
REMARK   28  A    between atoms: _56  and  _57
REMARK   29  A    between atoms: _60  and  _62
REMARK   30  A    between atoms: _62  and  _63
REMARK   31  A    between atoms: _62  and  _65
REMARK   32  A    between atoms: _65  and  _66
REMARK   33  A    between atoms: _71  and  _73
REMARK   34  A    between atoms: _73  and  _74
REMARK   35  A    between atoms: _73  and  _76
REMARK   36  A    between atoms: _76  and  _77
REMARK   37  A    between atoms: _80  and  _82
REMARK   38  A    between atoms: _82  and  _83
REMARK   39  A    between atoms: _86  and  _88
REMARK   40  A    between atoms: _88  and  _89
REMARK   41  A    between atoms: _88  and  _91
REMARK   42  A    between atoms: _91  and  _92
REMARK   43  A    between atoms: _95  and  _97
REMARK   44  A    between atoms: _97  and  _98
REMARK   45  A    between atoms: _97  and  _100
REMARK   46  A    between atoms: _100  and  _101
REMARK   47  A    between atoms: _101  and  _102
REMARK   48  A    between atoms: _102  and  _103
REMARK   49  A    between atoms: _112  and  _114
REMARK   50  A    between atoms: _114  and  _115
REMARK   51  A    between atoms: _114  and  _117
REMARK   52  A    between atoms: _117  and  _118
REMARK   53  A    between atoms: _118  and  _119
REMARK   54  A    between atoms: _122  and  _124
REMARK   55  A    between atoms: _124  and  _125
REMARK   56  A    between atoms: _124  and  _127
REMARK   57  A    between atoms: _127  and  _128
REMARK   58  A    between atoms: _131  and  _133
REMARK   59  A    between atoms: _133  and  _134
REMARK   60  A    between atoms: _133  and  _136
REMARK   61  A    between atoms: _139  and  _141
REMARK   62  A    between atoms: _141  and  _142
REMARK   63  A    between atoms: _141  and  _144
REMARK   64  A    between atoms: _144  and  _145
REMARK   65  A    between atoms: _145  and  _146
REMARK   66  A    between atoms: _148  and  _150
REMARK   67  A    between atoms: _150  and  _151
REMARK   68  A    between atoms: _150  and  _153
REMARK   69  A    between atoms: _153  and  _154
REMARK   70  A    between atoms: _164  and  _166
REMARK   71  A    between atoms: _166  and  _167
REMARK   72  A    between atoms: _166  and  _169
REMARK   73  A    between atoms: _169  and  _170
REMARK   74  A    between atoms: _173  and  _175
REMARK   75  A    between atoms: _175  and  _176
REMARK   76  A    between atoms: _175  and  _178
REMARK   77  A    between atoms: _178  and  _179
REMARK   78  A    between atoms: _179  and  _180
REMARK   79  A    between atoms: _183  and  _185
REMARK   80  A    between atoms: _185  and  _186
REMARK   81  A    between atoms: _185  and  _188
REMARK   82  A    between atoms: _188  and  _189
REMARK   83  A    between atoms: _192  and  _194
REMARK   84  A    between atoms: _194  and  _195
REMARK   85  A    between atoms: _194  and  _197
REMARK   86  A    between atoms: _197  and  _198
REMARK   87  A    between atoms: _201  and  _203
REMARK   88  A    between atoms: _203  and  _204
REMARK   89  A    between atoms: _203  and  _206
REMARK   90  A    between atoms: _206  and  _207
REMARK   91  A    between atoms: _207  and  _208
REMARK   92  A    between atoms: _210  and  _212
REMARK   93  A    between atoms: _212  and  _213
REMARK   94  A    between atoms: _212  and  _215
REMARK   95  A    between atoms: _215  and  _216
REMARK   96  A    between atoms: _219  and  _221
REMARK   97  A    between atoms: _221  and  _222
REMARK   98  A    between atoms: _224  and  _226
REMARK   99  A    between atoms: _226  and  _227
REMARK  100  A    between atoms: _226  and  _229
REMARK  101  A    between atoms: _229  and  _230
REMARK  102  A    between atoms: _233  and  _235
REMARK  103  A    between atoms: _235  and  _236
REMARK  104  A    between atoms: _235  and  _238
REMARK  105  A    between atoms: _241  and  _243
REMARK  106  A    between atoms: _243  and  _244
REMARK  107  A    between atoms: _243  and  _246
REMARK  108  A    between atoms: _246  and  _247
REMARK  109  A    between atoms: _247  and  _248
REMARK  110  A    between atoms: _248  and  _249
REMARK  111  A    between atoms: _258  and  _260
REMARK  112  A    between atoms: _260  and  _261
REMARK  113  A    between atoms: _260  and  _263
REMARK  114  A    between atoms: _263  and  _264
REMARK  115  A    between atoms: _266  and  _268
REMARK  116  A    between atoms: _268  and  _269
REMARK  117  A    between atoms: _268  and  _271
REMARK  118  A    between atoms: _271  and  _272
REMARK  119  A    between atoms: _275  and  _277
REMARK  120  A    between atoms: _277  and  _278
REMARK  121  A    between atoms: _277  and  _280
REMARK  122  A    between atoms: _280  and  _281
REMARK  123  A    between atoms: _284  and  _286
REMARK  124  A    between atoms: _286  and  _287
REMARK  125  A    between atoms: _286  and  _289
REMARK  126  A    between atoms: _289  and  _290
REMARK  127  A    between atoms: _296  and  _298
REMARK  128  A    between atoms: _298  and  _299
REMARK  129  A    between atoms: _302  and  _304
REMARK  130  A    between atoms: _304  and  _305
REMARK  131  A    between atoms: _304  and  _307
REMARK  132  A    between atoms: _307  and  _308
REMARK  133  A    between atoms: _311  and  _313
REMARK  134  A    between atoms: _313  and  _314
REMARK  135  A    between atoms: _316  and  _318
REMARK  136  A    between atoms: _318  and  _319
REMARK  137  A    between atoms: _318  and  _321
REMARK  138  A    between atoms: _324  and  _326
REMARK  139  A    between atoms: _326  and  _327
REMARK  140  A    between atoms: _326  and  _329
REMARK  141  A    between atoms: _329  and  _330
REMARK  142  A    between atoms: _330  and  _331
REMARK  143  A    between atoms: _334  and  _336
REMARK  144  A    between atoms: _336  and  _337
REMARK  145  A    between atoms: _339  and  _341
REMARK  146  A    between atoms: _341  and  _342
REMARK  147  A    between atoms: _341  and  _344
REMARK  148  A    between atoms: _344  and  _345
REMARK  149  A    between atoms: _345  and  _346
REMARK  150  A    between atoms: _348  and  _350
REMARK  151  A    between atoms: _350  and  _351
REMARK  152  A    between atoms: _350  and  _353
REMARK  153  A    between atoms: _356  and  _358
REMARK  154  A    between atoms: _358  and  _359
REMARK  155  A    between atoms: _358  and  _361
REMARK  156  A    between atoms: _361  and  _362
REMARK  157  A    between atoms: _362  and  _363
REMARK  158  A    between atoms: _366  and  _368
REMARK  159  A    between atoms: _368  and  _369
REMARK  160  A    between atoms: _368  and  _371
REMARK  161  A    between atoms: _371  and  _372
REMARK  162  A    between atoms: _375  and  _377
REMARK  163  A    between atoms: _377  and  _378
REMARK  164  A    between atoms: _377  and  _380
REMARK  165  A    between atoms: _380  and  _381
REMARK  166  A    between atoms: _387  and  _389
REMARK  167  A    between atoms: _389  and  _390
REMARK  168  A    between atoms: _389  and  _392
REMARK  169  A    between atoms: _392  and  _393
REMARK  170  A    between atoms: _396  and  _398
REMARK  171  A    between atoms: _398  and  _399
REMARK  172  A    between atoms: _398  and  _401
REMARK  173  A    between atoms: _401  and  _402
REMARK  174  A    between atoms: _402  and  _403
REMARK  175  A    between atoms: _405  and  _407
REMARK  176  A    between atoms: _407  and  _408
REMARK  177  A    between atoms: _407  and  _410
REMARK  178  A    between atoms: _410  and  _411
REMARK  179  A    between atoms: _413  and  _415
REMARK  180  A    between atoms: _415  and  _416
REMARK  181  A    between atoms: _415  and  _418
REMARK  182  A    between atoms: _418  and  _419
REMARK  183  A    between atoms: _424  and  _426
REMARK  184  A    between atoms: _426  and  _427
REMARK  185  A    between atoms: _426  and  _429
REMARK  186  A    between atoms: _429  and  _430
REMARK  187  A    between atoms: _430  and  _431
REMARK  188  A    between atoms: _431  and  _432
REMARK  189  A    between atoms: _432  and  _433
REMARK  190  A    between atoms: _437  and  _439
REMARK  191  A    between atoms: _439  and  _440
REMARK  192  A    between atoms: _442  and  _444
REMARK  193  A    between atoms: _444  and  _445
REMARK  194  A    between atoms: _444  and  _447
REMARK  195  A    between atoms: _447  and  _448
REMARK  196  A    between atoms: _448  and  _449
REMARK  197  A    between atoms: _451  and  _453
REMARK  198  A    between atoms: _453  and  _454
REMARK  199  A    between atoms: _453  and  _456
REMARK  200  A    between atoms: _456  and  _457
REMARK  201  A    between atoms: _457  and  _458
REMARK  202  A    between atoms: _461  and  _463
REMARK  203  A    between atoms: _463  and  _464
REMARK  204  A    between atoms: _463  and  _466
REMARK  205  A    between atoms: _466  and  _467
REMARK  206  A    between atoms: _472  and  _474
REMARK  207  A    between atoms: _474  and  _475
REMARK  208  A    between atoms: _474  and  _477
REMARK  209  A    between atoms: _477  and  _478
REMARK  210  A    between atoms: _481  and  _483
REMARK  211  A    between atoms: _483  and  _484
REMARK  212  A    between atoms: _483  and  _486
REMARK  213  A    between atoms: _486  and  _487
REMARK  214  A    between atoms: _492  and  _493
REMARK  215  A    between atoms: _495  and  _497
REMARK  216  A    between atoms: _497  and  _498
REMARK  217  A    between atoms: _497  and  _500
REMARK  218  A    between atoms: _500  and  _501
REMARK  219  A    between atoms: _503  and  _505
REMARK  220  A    between atoms: _505  and  _506
REMARK  221  A    between atoms: _505  and  _508
REMARK  222  A    between atoms: _508  and  _509
REMARK  223  A    between atoms: _509  and  _510
REMARK  224  A    between atoms: _512  and  _514
REMARK  225  A    between atoms: _514  and  _515
REMARK  226  A    between atoms: _514  and  _517
REMARK  227  A    between atoms: _517  and  _518
REMARK  228  A    between atoms: _518  and  _519
REMARK  229  A    between atoms: _519  and  _520
REMARK  230  A    between atoms: _520  and  _521
REMARK  231  A    between atoms: _525  and  _527
REMARK  232  A    between atoms: _527  and  _528
REMARK  233  A    between atoms: _527  and  _530
REMARK  234  A    between atoms: _530  and  _531
REMARK  235  A    between atoms: _531  and  _532
REMARK  236  A    between atoms: _532  and  _533
REMARK  237  A    between atoms: _533  and  _534
REMARK  238  A    between atoms: _538  and  _540
REMARK  239  A    between atoms: _540  and  _541
REMARK  240  A    between atoms: _540  and  _543
REMARK  241  A    between atoms: _547  and  _548
REMARK  242  A    between atoms: _553  and  _555
REMARK  243  A    between atoms: _555  and  _556
REMARK  244  A    between atoms: _555  and  _558
REMARK  245  A    between atoms: _558  and  _559
REMARK  246  A    between atoms: _562  and  _564
REMARK  247  A    between atoms: _564  and  _565
REMARK  248  A    between atoms: _564  and  _567
REMARK  249  A    between atoms: _567  and  _568
REMARK  250  A    between atoms: _571  and  _573
REMARK  251  A    between atoms: _573  and  _574
REMARK  252  A    between atoms: _573  and  _576
REMARK  253  A    between atoms: _576  and  _577
REMARK  254  A    between atoms: _580  and  _582
REMARK  255  A    between atoms: _582  and  _583
REMARK  256  A    between atoms: _582  and  _585
REMARK  257  A    between atoms: _585  and  _586
REMARK  258  A    between atoms: _586  and  _587
REMARK                            x       y       z     vdW  Elec       q    Type
REMARK                         _______ _______ _______ _____ _____    ______ ____
ROOT
ATOM      1  O   HOH     1      36.719  -5.426  24.120  0.00  0.00    +0.000 OA
ENDROOT
TORSDOF 0
REMARK  Name = ../refined-set-2016/2ayr/2ayr_pocket.pdb
REMARK  258 active torsions:
REMARK  status: ('A' for Active; 'I' for Inactive)
REMARK    1  A    between atoms: _1  and  _3
REMARK    2  A    between atoms: _3  and  _4
REMARK    3  A    between atoms: _3  and  _6
REMARK    4  A    between atoms: _6  and  _7
REMARK    5  A    between atoms: _10  and  _12
REMARK    6  A    between atoms: _12  and  _13
REMARK    7  A    between atoms: _12  and  _15
REMARK    8  A    between atoms: _15  and  _16
REMARK    9  A    between atoms: _16  and  _17
REMARK   10  A    between atoms: _19  and  _21
REMARK   11  A    between atoms: _21  and  _22
REMARK   12  A    between atoms: _21  and  _24
REMARK   13  A    between atoms: _24  and  _25
REMARK   14  A    between atoms: _25  and  _26
REMARK   15  A    between atoms: _28  and  _30
REMARK   16  A    between atoms: _30  and  _31
REMARK   17  A    between atoms: _33  and  _35
REMARK   18  A    between atoms: _35  and  _36
REMARK   19  A    between atoms: _35  and  _38
REMARK   20  A    between atoms: _38  and  _39
REMARK   21  A    between atoms: _42  and  _44
REMARK   22  A    between atoms: _44  and  _45
REMARK   23  A    between atoms: _44  and  _47
REMARK   24  A    between atoms: _47  and  _48
REMARK   25  A    between atoms: _51  and  _53
REMARK   26  A    between atoms: _53  and  _54
REMARK   27  A    between atoms: _53  and  _56
REMARK   28  A    between atoms: _56  and  _57
REMARK   29  A    between atoms: _60  and  _62
REMARK   30  A    between atoms: _62  and  _63
REMARK   31  A    between atoms: _62  and  _65
REMARK   32  A    between atoms: _65  and  _66
REMARK   33  A    between atoms: _71  and  _73
REMARK   34  A    between atoms: _73  and  _74
REMARK   35  A    between atoms: _73  and  _76
REMARK   36  A    between atoms: _76  and  _77
REMARK   37  A    between atoms: _80  and  _82
REMARK   38  A    between atoms: _82  and  _83
REMARK   39  A    between atoms: _86  and  _88
REMARK   40  A    between atoms: _88  and  _89
REMARK   41  A    between atoms: _88  and  _91
REMARK   42  A    between atoms: _91  and  _92
REMARK   43  A    between atoms: _95  and  _97
REMARK   44  A    between atoms: _97  and  _98
REMARK   45  A    between atoms: _97  and  _100
REMARK   46  A    between atoms: _100  and  _101
REMARK   47  A    between atoms: _101  and  _102
REMARK   48  A    between atoms: _102  and  _103
REMARK   49  A    between atoms: _112  and  _114
REMARK   50  A    between atoms: _114  and  _115
REMARK   51  A    between atoms: _114  and  _117
REMARK   52  A    between atoms: _117  and  _118
REMARK   53  A    between atoms: _118  and  _119
REMARK   54  A    between atoms: _122  and  _124
REMARK   55  A    between atoms: _124  and  _125
REMARK   56  A    between atoms: _124  and  _127
REMARK   57  A    between atoms: _127  and  _128
REMARK   58  A    between atoms: _131  and  _133
REMARK   59  A    between atoms: _133  and  _134
REMARK   60  A    between atoms: _133  and  _136
REMARK   61  A    between atoms: _139  and  _141
REMARK   62  A    between atoms: _141  and  _142
REMARK   63  A    between atoms: _141  and  _144
REMARK   64  A    between atoms: _144  and  _145
REMARK   65  A    between atoms: _145  and  _146
REMARK   66  A    between atoms: _148  and  _150
REMARK   67  A    between atoms: _150  and  _151
REMARK   68  A    between atoms: _150  and  _153
REMARK   69  A    between atoms: _153  and  _154
REMARK   70  A    between atoms: _164  and  _166
REMARK   71  A    between atoms: _166  and  _167
REMARK   72  A    between atoms: _166  and  _169
REMARK   73  A    between atoms: _169  and  _170
REMARK   74  A    between atoms: _173  and  _175
REMARK   75  A    between atoms: _175  and  _176
REMARK   76  A    between atoms: _175  and  _178
REMARK   77  A    between atoms: _178  and  _179
REMARK   78  A    between atoms: _179  and  _180
REMARK   79  A    between atoms: _183  and  _185
REMARK   80  A    between atoms: _185  and  _186
REMARK   81  A    between atoms: _185  and  _188
REMARK   82  A    between atoms: _188  and  _189
REMARK   83  A    between atoms: _192  and  _194
REMARK   84  A    between atoms: _194  and  _195
REMARK   85  A    between atoms: _194  and  _197
REMARK   86  A    between atoms: _197  and  _198
REMARK   87  A    between atoms: _201  and  _203
REMARK   88  A    between atoms: _203  and  _204
REMARK   89  A    between atoms: _203  and  _206
REMARK   90  A    between atoms: _206  and  _207
REMARK   91  A    between atoms: _207  and  _208
REMARK   92  A    between atoms: _210  and  _212
REMARK   93  A    between atoms: _212  and  _213
REMARK   94  A    between atoms: _212  and  _215
REMARK   95  A    between atoms: _215  and  _216
REMARK   96  A    between atoms: _219  and  _221
REMARK   97  A    between atoms: _221  and  _222
REMARK   98  A    between atoms: _224  and  _226
REMARK   99  A    between atoms: _226  and  _227
REMARK  100  A    between atoms: _226  and  _229
REMARK  101  A    between atoms: _229  and  _230
REMARK  102  A    between atoms: _233  and  _235
REMARK  103  A    between atoms: _235  and  _236
REMARK  104  A    between atoms: _235  and  _238
REMARK  105  A    between atoms: _241  and  _243
REMARK  106  A    between atoms: _243  and  _244
REMARK  107  A    between atoms: _243  and  _246
REMARK  108  A    between atoms: _246  and  _247
REMARK  109  A    between atoms: _247  and  _248
REMARK  110  A    between atoms: _248  and  _249
REMARK  111  A    between atoms: _258  and  _260
REMARK  112  A    between atoms: _260  and  _261
REMARK  113  A    between atoms: _260  and  _263
REMARK  114  A    between atoms: _263  and  _264
REMARK  115  A    between atoms: _266  and  _268
REMARK  116  A    between atoms: _268  and  _269
REMARK  117  A    between atoms: _268  and  _271
REMARK  118  A    between atoms: _271  and  _272
REMARK  119  A    between atoms: _275  and  _277
REMARK  120  A    between atoms: _277  and  _278
REMARK  121  A    between atoms: _277  and  _280
REMARK  122  A    between atoms: _280  and  _281
REMARK  123  A    between atoms: _284  and  _286
REMARK  124  A    between atoms: _286  and  _287
REMARK  125  A    between atoms: _286  and  _289
REMARK  126  A    between atoms: _289  and  _290
REMARK  127  A    between atoms: _296  and  _298
REMARK  128  A    between atoms: _298  and  _299
REMARK  129  A    between atoms: _302  and  _304
REMARK  130  A    between atoms: _304  and  _305
REMARK  131  A    between atoms: _304  and  _307
REMARK  132  A    between atoms: _307  and  _308
REMARK  133  A    between atoms: _311  and  _313
REMARK  134  A    between atoms: _313  and  _314
REMARK  135  A    between atoms: _316  and  _318
REMARK  136  A    between atoms: _318  and  _319
REMARK  137  A    between atoms: _318  and  _321
REMARK  138  A    between atoms: _324  and  _326
REMARK  139  A    between atoms: _326  and  _327
REMARK  140  A    between atoms: _326  and  _329
REMARK  141  A    between atoms: _329  and  _330
REMARK  142  A    between atoms: _330  and  _331
REMARK  143  A    between atoms: _334  and  _336
REMARK  144  A    between atoms: _336  and  _337
REMARK  145  A    between atoms: _339  and  _341
REMARK  146  A    between atoms: _341  and  _342
REMARK  147  A    between atoms: _341  and  _344
REMARK  148  A    between atoms: _344  and  _345
REMARK  149  A    between atoms: _345  and  _346
REMARK  150  A    between atoms: _348  and  _350
REMARK  151  A    between atoms: _350  and  _351
REMARK  152  A    between atoms: _350  and  _353
REMARK  153  A    between atoms: _356  and  _358
REMARK  154  A    between atoms: _358  and  _359
REMARK  155  A    between atoms: _358  and  _361
REMARK  156  A    between atoms: _361  and  _362
REMARK  157  A    between atoms: _362  and  _363
REMARK  158  A    between atoms: _366  and  _368
REMARK  159  A    between atoms: _368  and  _369
REMARK  160  A    between atoms: _368  and  _371
REMARK  161  A    between atoms: _371  and  _372
REMARK  162  A    between atoms: _375  and  _377
REMARK  163  A    between atoms: _377  and  _378
REMARK  164  A    between atoms: _377  and  _380
REMARK  165  A    between atoms: _380  and  _381
REMARK  166  A    between atoms: _387  and  _389
REMARK  167  A    between atoms: _389  and  _390
REMARK  168  A    between atoms: _389  and  _392
REMARK  169  A    between atoms: _392  and  _393
REMARK  170  A    between atoms: _396  and  _398
REMARK  171  A    between atoms: _398  and  _399
REMARK  172  A    between atoms: _398  and  _401
REMARK  173  A    between atoms: _401  and  _402
REMARK  174  A    between atoms: _402  and  _403
REMARK  175  A    between atoms: _405  and  _407
REMARK  176  A    between atoms: _407  and  _408
REMARK  177  A    between atoms: _407  and  _410
REMARK  178  A    between atoms: _410  and  _411
REMARK  179  A    between atoms: _413  and  _415
REMARK  180  A    between atoms: _415  and  _416
REMARK  181  A    between atoms: _415  and  _418
REMARK  182  A    between atoms: _418  and  _419
REMARK  183  A    between atoms: _424  and  _426
REMARK  184  A    between atoms: _426  and  _427
REMARK  185  A    between atoms: _426  and  _429
REMARK  186  A    between atoms: _429  and  _430
REMARK  187  A    between atoms: _430  and  _431
REMARK  188  A    between atoms: _431  and  _432
REMARK  189  A    between atoms: _432  and  _433
REMARK  190  A    between atoms: _437  and  _439
REMARK  191  A    between atoms: _439  and  _440
REMARK  192  A    between atoms: _442  and  _444
REMARK  193  A    between atoms: _444  and  _445
REMARK  194  A    between atoms: _444  and  _447
REMARK  195  A    between atoms: _447  and  _448
REMARK  196  A    between atoms: _448  and  _449
REMARK  197  A    between atoms: _451  and  _453
REMARK  198  A    between atoms: _453  and  _454
REMARK  199  A    between atoms: _453  and  _456
REMARK  200  A    between atoms: _456  and  _457
REMARK  201  A    between atoms: _457  and  _458
REMARK  202  A    between atoms: _461  and  _463
REMARK  203  A    between atoms: _463  and  _464
REMARK  204  A    between atoms: _463  and  _466
REMARK  205  A    between atoms: _466  and  _467
REMARK  206  A    between atoms: _472  and  _474
REMARK  207  A    between atoms: _474  and  _475
REMARK  208  A    between atoms: _474  and  _477
REMARK  209  A    between atoms: _477  and  _478
REMARK  210  A    between atoms: _481  and  _483
REMARK  211  A    between atoms: _483  and  _484
REMARK  212  A    between atoms: _483  and  _486
REMARK  213  A    between atoms: _486  and  _487
REMARK  214  A    between atoms: _492  and  _493
REMARK  215  A    between atoms: _495  and  _497
REMARK  216  A    between atoms: _497  and  _498
REMARK  217  A    between atoms: _497  and  _500
REMARK  218  A    between atoms: _500  and  _501
REMARK  219  A    between atoms: _503  and  _505
REMARK  220  A    between atoms: _505  and  _506
REMARK  221  A    between atoms: _505  and  _508
REMARK  222  A    between atoms: _508  and  _509
REMARK  223  A    between atoms: _509  and  _510
REMARK  224  A    between atoms: _512  and  _514
REMARK  225  A    between atoms: _514  and  _515
REMARK  226  A    between atoms: _514  and  _517
REMARK  227  A    between atoms: _517  and  _518
REMARK  228  A    between atoms: _518  and  _519
REMARK  229  A    between atoms: _519  and  _520
REMARK  230  A    between atoms: _520  and  _521
REMARK  231  A    between atoms: _525  and  _527
REMARK  232  A    between atoms: _527  and  _528
REMARK  233  A    between atoms: _527  and  _530
REMARK  234  A    between atoms: _530  and  _531
REMARK  235  A    between atoms: _531  and  _532
REMARK  236  A    between atoms: _532  and  _533
REMARK  237  A    between atoms: _533  and  _534
REMARK  238  A    between atoms: _538  and  _540
REMARK  239  A    between atoms: _540  and  _541
REMARK  240  A    between atoms: _540  and  _543
REMARK  241  A    between atoms: _547  and  _548
REMARK  242  A    between atoms: _553  and  _555
REMARK  243  A    between atoms: _555  and  _556
REMARK  244  A    between atoms: _555  and  _558
REMARK  245  A    between atoms: _558  and  _559
REMARK  246  A    between atoms: _562  and  _564
REMARK  247  A    between atoms: _564  and  _565
REMARK  248  A    between atoms: _564  and  _567
REMARK  249  A    between atoms: _567  and  _568
REMARK  250  A    between atoms: _571  and  _573
REMARK  251  A    between atoms: _573  and  _574
REMARK  252  A    between atoms: _573  and  _576
REMARK  253  A    between atoms: _576  and  _577
REMARK  254  A    between atoms: _580  and  _582
REMARK  255  A    between atoms: _582  and  _583
REMARK  256  A    between atoms: _582  and  _585
REMARK  257  A    between atoms: _585  and  _586
REMARK  258  A    between atoms: _586  and  _587
REMARK                            x       y       z     vdW  Elec       q    Type
REMARK                         _______ _______ _______ _____ _____    ______ ____
ROOT
ATOM      1  O   HOH     1      34.102   3.222  16.440  0.00  0.00    +0.000 OA
ENDROOT
TORSDOF 0
REMARK  Name = ../refined-set-2016/2ayr/2ayr_pocket.pdb
REMARK  258 active torsions:
REMARK  status: ('A' for Active; 'I' for Inactive)
REMARK    1  A    between atoms: _1  and  _3
REMARK    2  A    between atoms: _3  and  _4
REMARK    3  A    between atoms: _3  and  _6
REMARK    4  A    between atoms: _6  and  _7
REMARK    5  A    between atoms: _10  and  _12
REMARK    6  A    between atoms: _12  and  _13
REMARK    7  A    between atoms: _12  and  _15
REMARK    8  A    between atoms: _15  and  _16
REMARK    9  A    between atoms: _16  and  _17
REMARK   10  A    between atoms: _19  and  _21
REMARK   11  A    between atoms: _21  and  _22
REMARK   12  A    between atoms: _21  and  _24
REMARK   13  A    between atoms: _24  and  _25
REMARK   14  A    between atoms: _25  and  _26
REMARK   15  A    between atoms: _28  and  _30
REMARK   16  A    between atoms: _30  and  _31
REMARK   17  A    between atoms: _33  and  _35
REMARK   18  A    between atoms: _35  and  _36
REMARK   19  A    between atoms: _35  and  _38
REMARK   20  A    between atoms: _38  and  _39
REMARK   21  A    between atoms: _42  and  _44
REMARK   22  A    between atoms: _44  and  _45
REMARK   23  A    between atoms: _44  and  _47
REMARK   24  A    between atoms: _47  and  _48
REMARK   25  A    between atoms: _51  and  _53
REMARK   26  A    between atoms: _53  and  _54
REMARK   27  A    between atoms: _53  and  _56
REMARK   28  A    between atoms: _56  and  _57
REMARK   29  A    between atoms: _60  and  _62
REMARK   30  A    between atoms: _62  and  _63
REMARK   31  A    between atoms: _62  and  _65
REMARK   32  A    between atoms: _65  and  _66
REMARK   33  A    between atoms: _71  and  _73
REMARK   34  A    between atoms: _73  and  _74
REMARK   35  A    between atoms: _73  and  _76
REMARK   36  A    between atoms: _76  and  _77
REMARK   37  A    between atoms: _80  and  _82
REMARK   38  A    between atoms: _82  and  _83
REMARK   39  A    between atoms: _86  and  _88
REMARK   40  A    between atoms: _88  and  _89
REMARK   41  A    between atoms: _88  and  _91
REMARK   42  A    between atoms: _91  and  _92
REMARK   43  A    between atoms: _95  and  _97
REMARK   44  A    between atoms: _97  and  _98
REMARK   45  A    between atoms: _97  and  _100
REMARK   46  A    between atoms: _100  and  _101
REMARK   47  A    between atoms: _101  and  _102
REMARK   48  A    between atoms: _102  and  _103
REMARK   49  A    between atoms: _112  and  _114
REMARK   50  A    between atoms: _114  and  _115
REMARK   51  A    between atoms: _114  and  _117
REMARK   52  A    between atoms: _117  and  _118
REMARK   53  A    between atoms: _118  and  _119
REMARK   54  A    between atoms: _122  and  _124
REMARK   55  A    between atoms: _124  and  _125
REMARK   56  A    between atoms: _124  and  _127
REMARK   57  A    between atoms: _127  and  _128
REMARK   58  A    between atoms: _131  and  _133
REMARK   59  A    between atoms: _133  and  _134
REMARK   60  A    between atoms: _133  and  _136
REMARK   61  A    between atoms: _139  and  _141
REMARK   62  A    between atoms: _141  and  _142
REMARK   63  A    between atoms: _141  and  _144
REMARK   64  A    between atoms: _144  and  _145
REMARK   65  A    between atoms: _145  and  _146
REMARK   66  A    between atoms: _148  and  _150
REMARK   67  A    between atoms: _150  and  _151
REMARK   68  A    between atoms: _150  and  _153
REMARK   69  A    between atoms: _153  and  _154
REMARK   70  A    between atoms: _164  and  _166
REMARK   71  A    between atoms: _166  and  _167
REMARK   72  A    between atoms: _166  and  _169
REMARK   73  A    between atoms: _169  and  _170
REMARK   74  A    between atoms: _173  and  _175
REMARK   75  A    between atoms: _175  and  _176
REMARK   76  A    between atoms: _175  and  _178
REMARK   77  A    between atoms: _178  and  _179
REMARK   78  A    between atoms: _179  and  _180
REMARK   79  A    between atoms: _183  and  _185
REMARK   80  A    between atoms: _185  and  _186
REMARK   81  A    between atoms: _185  and  _188
REMARK   82  A    between atoms: _188  and  _189
REMARK   83  A    between atoms: _192  and  _194
REMARK   84  A    between atoms: _194  and  _195
REMARK   85  A    between atoms: _194  and  _197
REMARK   86  A    between atoms: _197  and  _198
REMARK   87  A    between atoms: _201  and  _203
REMARK   88  A    between atoms: _203  and  _204
REMARK   89  A    between atoms: _203  and  _206
REMARK   90  A    between atoms: _206  and  _207
REMARK   91  A    between atoms: _207  and  _208
REMARK   92  A    between atoms: _210  and  _212
REMARK   93  A    between atoms: _212  and  _213
REMARK   94  A    between atoms: _212  and  _215
REMARK   95  A    between atoms: _215  and  _216
REMARK   96  A    between atoms: _219  and  _221
REMARK   97  A    between atoms: _221  and  _222
REMARK   98  A    between atoms: _224  and  _226
REMARK   99  A    between atoms: _226  and  _227
REMARK  100  A    between atoms: _226  and  _229
REMARK  101  A    between atoms: _229  and  _230
REMARK  102  A    between atoms: _233  and  _235
REMARK  103  A    between atoms: _235  and  _236
REMARK  104  A    between atoms: _235  and  _238
REMARK  105  A    between atoms: _241  and  _243
REMARK  106  A    between atoms: _243  and  _244
REMARK  107  A    between atoms: _243  and  _246
REMARK  108  A    between atoms: _246  and  _247
REMARK  109  A    between atoms: _247  and  _248
REMARK  110  A    between atoms: _248  and  _249
REMARK  111  A    between atoms: _258  and  _260
REMARK  112  A    between atoms: _260  and  _261
REMARK  113  A    between atoms: _260  and  _263
REMARK  114  A    between atoms: _263  and  _264
REMARK  115  A    between atoms: _266  and  _268
REMARK  116  A    between atoms: _268  and  _269
REMARK  117  A    between atoms: _268  and  _271
REMARK  118  A    between atoms: _271  and  _272
REMARK  119  A    between atoms: _275  and  _277
REMARK  120  A    between atoms: _277  and  _278
REMARK  121  A    between atoms: _277  and  _280
REMARK  122  A    between atoms: _280  and  _281
REMARK  123  A    between atoms: _284  and  _286
REMARK  124  A    between atoms: _286  and  _287
REMARK  125  A    between atoms: _286  and  _289
REMARK  126  A    between atoms: _289  and  _290
REMARK  127  A    between atoms: _296  and  _298
REMARK  128  A    between atoms: _298  and  _299
REMARK  129  A    between atoms: _302  and  _304
REMARK  130  A    between atoms: _304  and  _305
REMARK  131  A    between atoms: _304  and  _307
REMARK  132  A    between atoms: _307  and  _308
REMARK  133  A    between atoms: _311  and  _313
REMARK  134  A    between atoms: _313  and  _314
REMARK  135  A    between atoms: _316  and  _318
REMARK  136  A    between atoms: _318  and  _319
REMARK  137  A    between atoms: _318  and  _321
REMARK  138  A    between atoms: _324  and  _326
REMARK  139  A    between atoms: _326  and  _327
REMARK  140  A    between atoms: _326  and  _329
REMARK  141  A    between atoms: _329  and  _330
REMARK  142  A    between atoms: _330  and  _331
REMARK  143  A    between atoms: _334  and  _336
REMARK  144  A    between atoms: _336  and  _337
REMARK  145  A    between atoms: _339  and  _341
REMARK  146  A    between atoms: _341  and  _342
REMARK  147  A    between atoms: _341  and  _344
REMARK  148  A    between atoms: _344  and  _345
REMARK  149  A    between atoms: _345  and  _346
REMARK  150  A    between atoms: _348  and  _350
REMARK  151  A    between atoms: _350  and  _351
REMARK  152  A    between atoms: _350  and  _353
REMARK  153  A    between atoms: _356  and  _358
REMARK  154  A    between atoms: _358  and  _359
REMARK  155  A    between atoms: _358  and  _361
REMARK  156  A    between atoms: _361  and  _362
REMARK  157  A    between atoms: _362  and  _363
REMARK  158  A    between atoms: _366  and  _368
REMARK  159  A    between atoms: _368  and  _369
REMARK  160  A    between atoms: _368  and  _371
REMARK  161  A    between atoms: _371  and  _372
REMARK  162  A    between atoms: _375  and  _377
REMARK  163  A    between atoms: _377  and  _378
REMARK  164  A    between atoms: _377  and  _380
REMARK  165  A    between atoms: _380  and  _381
REMARK  166  A    between atoms: _387  and  _389
REMARK  167  A    between atoms: _389  and  _390
REMARK  168  A    between atoms: _389  and  _392
REMARK  169  A    between atoms: _392  and  _393
REMARK  170  A    between atoms: _396  and  _398
REMARK  171  A    between atoms: _398  and  _399
REMARK  172  A    between atoms: _398  and  _401
REMARK  173  A    between atoms: _401  and  _402
REMARK  174  A    between atoms: _402  and  _403
REMARK  175  A    between atoms: _405  and  _407
REMARK  176  A    between atoms: _407  and  _408
REMARK  177  A    between atoms: _407  and  _410
REMARK  178  A    between atoms: _410  and  _411
REMARK  179  A    between atoms: _413  and  _415
REMARK  180  A    between atoms: _415  and  _416
REMARK  181  A    between atoms: _415  and  _418
REMARK  182  A    between atoms: _418  and  _419
REMARK  183  A    between atoms: _424  and  _426
REMARK  184  A    between atoms: _426  and  _427
REMARK  185  A    between atoms: _426  and  _429
REMARK  186  A    between atoms: _429  and  _430
REMARK  187  A    between atoms: _430  and  _431
REMARK  188  A    between atoms: _431  and  _432
REMARK  189  A    between atoms: _432  and  _433
REMARK  190  A    between atoms: _437  and  _439
REMARK  191  A    between atoms: _439  and  _440
REMARK  192  A    between atoms: _442  and  _444
REMARK  193  A    between atoms: _444  and  _445
REMARK  194  A    between atoms: _444  and  _447
REMARK  195  A    between atoms: _447  and  _448
REMARK  196  A    between atoms: _448  and  _449
REMARK  197  A    between atoms: _451  and  _453
REMARK  198  A    between atoms: _453  and  _454
REMARK  199  A    between atoms: _453  and  _456
REMARK  200  A    between atoms: _456  and  _457
REMARK  201  A    between atoms: _457  and  _458
REMARK  202  A    between atoms: _461  and  _463
REMARK  203  A    between atoms: _463  and  _464
REMARK  204  A    between atoms: _463  and  _466
REMARK  205  A    between atoms: _466  and  _467
REMARK  206  A    between atoms: _472  and  _474
REMARK  207  A    between atoms: _474  and  _475
REMARK  208  A    between atoms: _474  and  _477
REMARK  209  A    between atoms: _477  and  _478
REMARK  210  A    between atoms: _481  and  _483
REMARK  211  A    between atoms: _483  and  _484
REMARK  212  A    between atoms: _483  and  _486
REMARK  213  A    between atoms: _486  and  _487
REMARK  214  A    between atoms: _492  and  _493
REMARK  215  A    between atoms: _495  and  _497
REMARK  216  A    between atoms: _497  and  _498
REMARK  217  A    between atoms: _497  and  _500
REMARK  218  A    between atoms: _500  and  _501
REMARK  219  A    between atoms: _503  and  _505
REMARK  220  A    between atoms: _505  and  _506
REMARK  221  A    between atoms: _505  and  _508
REMARK  222  A    between atoms: _508  and  _509
REMARK  223  A    between atoms: _509  and  _510
REMARK  224  A    between atoms: _512  and  _514
REMARK  225  A    between atoms: _514  and  _515
REMARK  226  A    between atoms: _514  and  _517
REMARK  227  A    between atoms: _517  and  _518
REMARK  228  A    between atoms: _518  and  _519
REMARK  229  A    between atoms: _519  and  _520
REMARK  230  A    between atoms: _520  and  _521
REMARK  231  A    between atoms: _525  and  _527
REMARK  232  A    between atoms: _527  and  _528
REMARK  233  A    between atoms: _527  and  _530
REMARK  234  A    between atoms: _530  and  _531
REMARK  235  A    between atoms: _531  and  _532
REMARK  236  A    between atoms: _532  and  _533
REMARK  237  A    between atoms: _533  and  _534
REMARK  238  A    between atoms: _538  and  _540
REMARK  239  A    between atoms: _540  and  _541
REMARK  240  A    between atoms: _540  and  _543
REMARK  241  A    between atoms: _547  and  _548
REMARK  242  A    between atoms: _553  and  _555
REMARK  243  A    between atoms: _555  and  _556
REMARK  244  A    between atoms: _555  and  _558
REMARK  245  A    between atoms: _558  and  _559
REMARK  246  A    between atoms: _562  and  _564
REMARK  247  A    between atoms: _564  and  _565
REMARK  248  A    between atoms: _564  and  _567
REMARK  249  A    between atoms: _567  and  _568
REMARK  250  A    between atoms: _571  and  _573
REMARK  251  A    between atoms: _573  and  _574
REMARK  252  A    between atoms: _573  and  _576
REMARK  253  A    between atoms: _576  and  _577
REMARK  254  A    between atoms: _580  and  _582
REMARK  255  A    between atoms: _582  and  _583
REMARK  256  A    between atoms: _582  and  _585
REMARK  257  A    between atoms: _585  and  _586
REMARK  258  A    between atoms: _586  and  _587
REMARK                            x       y       z     vdW  Elec       q    Type
REMARK                         _______ _______ _______ _____ _____    ______ ____
ROOT
ATOM      1  O   HOH     1      39.841   4.948  35.625  0.00  0.00    +0.000 OA
ENDROOT
TORSDOF 0
REMARK  Name = ../refined-set-2016/2ayr/2ayr_pocket.pdb
REMARK  258 active torsions:
REMARK  status: ('A' for Active; 'I' for Inactive)
REMARK    1  A    between atoms: _1  and  _3
REMARK    2  A    between atoms: _3  and  _4
REMARK    3  A    between atoms: _3  and  _6
REMARK    4  A    between atoms: _6  and  _7
REMARK    5  A    between atoms: _10  and  _12
REMARK    6  A    between atoms: _12  and  _13
REMARK    7  A    between atoms: _12  and  _15
REMARK    8  A    between atoms: _15  and  _16
REMARK    9  A    between atoms: _16  and  _17
REMARK   10  A    between atoms: _19  and  _21
REMARK   11  A    between atoms: _21  and  _22
REMARK   12  A    between atoms: _21  and  _24
REMARK   13  A    between atoms: _24  and  _25
REMARK   14  A    between atoms: _25  and  _26
REMARK   15  A    between atoms: _28  and  _30
REMARK   16  A    between atoms: _30  and  _31
REMARK   17  A    between atoms: _33  and  _35
REMARK   18  A    between atoms: _35  and  _36
REMARK   19  A    between atoms: _35  and  _38
REMARK   20  A    between atoms: _38  and  _39
REMARK   21  A    between atoms: _42  and  _44
REMARK   22  A    between atoms: _44  and  _45
REMARK   23  A    between atoms: _44  and  _47
REMARK   24  A    between atoms: _47  and  _48
REMARK   25  A    between atoms: _51  and  _53
REMARK   26  A    between atoms: _53  and  _54
REMARK   27  A    between atoms: _53  and  _56
REMARK   28  A    between atoms: _56  and  _57
REMARK   29  A    between atoms: _60  and  _62
REMARK   30  A    between atoms: _62  and  _63
REMARK   31  A    between atoms: _62  and  _65
REMARK   32  A    between atoms: _65  and  _66
REMARK   33  A    between atoms: _71  and  _73
REMARK   34  A    between atoms: _73  and  _74
REMARK   35  A    between atoms: _73  and  _76
REMARK   36  A    between atoms: _76  and  _77
REMARK   37  A    between atoms: _80  and  _82
REMARK   38  A    between atoms: _82  and  _83
REMARK   39  A    between atoms: _86  and  _88
REMARK   40  A    between atoms: _88  and  _89
REMARK   41  A    between atoms: _88  and  _91
REMARK   42  A    between atoms: _91  and  _92
REMARK   43  A    between atoms: _95  and  _97
REMARK   44  A    between atoms: _97  and  _98
REMARK   45  A    between atoms: _97  and  _100
REMARK   46  A    between atoms: _100  and  _101
REMARK   47  A    between atoms: _101  and  _102
REMARK   48  A    between atoms: _102  and  _103
REMARK   49  A    between atoms: _112  and  _114
REMARK   50  A    between atoms: _114  and  _115
REMARK   51  A    between atoms: _114  and  _117
REMARK   52  A    between atoms: _117  and  _118
REMARK   53  A    between atoms: _118  and  _119
REMARK   54  A    between atoms: _122  and  _124
REMARK   55  A    between atoms: _124  and  _125
REMARK   56  A    between atoms: _124  and  _127
REMARK   57  A    between atoms: _127  and  _128
REMARK   58  A    between atoms: _131  and  _133
REMARK   59  A    between atoms: _133  and  _134
REMARK   60  A    between atoms: _133  and  _136
REMARK   61  A    between atoms: _139  and  _141
REMARK   62  A    between atoms: _141  and  _142
REMARK   63  A    between atoms: _141  and  _144
REMARK   64  A    between atoms: _144  and  _145
REMARK   65  A    between atoms: _145  and  _146
REMARK   66  A    between atoms: _148  and  _150
REMARK   67  A    between atoms: _150  and  _151
REMARK   68  A    between atoms: _150  and  _153
REMARK   69  A    between atoms: _153  and  _154
REMARK   70  A    between atoms: _164  and  _166
REMARK   71  A    between atoms: _166  and  _167
REMARK   72  A    between atoms: _166  and  _169
REMARK   73  A    between atoms: _169  and  _170
REMARK   74  A    between atoms: _173  and  _175
REMARK   75  A    between atoms: _175  and  _176
REMARK   76  A    between atoms: _175  and  _178
REMARK   77  A    between atoms: _178  and  _179
REMARK   78  A    between atoms: _179  and  _180
REMARK   79  A    between atoms: _183  and  _185
REMARK   80  A    between atoms: _185  and  _186
REMARK   81  A    between atoms: _185  and  _188
REMARK   82  A    between atoms: _188  and  _189
REMARK   83  A    between atoms: _192  and  _194
REMARK   84  A    between atoms: _194  and  _195
REMARK   85  A    between atoms: _194  and  _197
REMARK   86  A    between atoms: _197  and  _198
REMARK   87  A    between atoms: _201  and  _203
REMARK   88  A    between atoms: _203  and  _204
REMARK   89  A    between atoms: _203  and  _206
REMARK   90  A    between atoms: _206  and  _207
REMARK   91  A    between atoms: _207  and  _208
REMARK   92  A    between atoms: _210  and  _212
REMARK   93  A    between atoms: _212  and  _213
REMARK   94  A    between atoms: _212  and  _215
REMARK   95  A    between atoms: _215  and  _216
REMARK   96  A    between atoms: _219  and  _221
REMARK   97  A    between atoms: _221  and  _222
REMARK   98  A    between atoms: _224  and  _226
REMARK   99  A    between atoms: _226  and  _227
REMARK  100  A    between atoms: _226  and  _229
REMARK  101  A    between atoms: _229  and  _230
REMARK  102  A    between atoms: _233  and  _235
REMARK  103  A    between atoms: _235  and  _236
REMARK  104  A    between atoms: _235  and  _238
REMARK  105  A    between atoms: _241  and  _243
REMARK  106  A    between atoms: _243  and  _244
REMARK  107  A    between atoms: _243  and  _246
REMARK  108  A    between atoms: _246  and  _247
REMARK  109  A    between atoms: _247  and  _248
REMARK  110  A    between atoms: _248  and  _249
REMARK  111  A    between atoms: _258  and  _260
REMARK  112  A    between atoms: _260  and  _261
REMARK  113  A    between atoms: _260  and  _263
REMARK  114  A    between atoms: _263  and  _264
REMARK  115  A    between atoms: _266  and  _268
REMARK  116  A    between atoms: _268  and  _269
REMARK  117  A    between atoms: _268  and  _271
REMARK  118  A    between atoms: _271  and  _272
REMARK  119  A    between atoms: _275  and  _277
REMARK  120  A    between atoms: _277  and  _278
REMARK  121  A    between atoms: _277  and  _280
REMARK  122  A    between atoms: _280  and  _281
REMARK  123  A    between atoms: _284  and  _286
REMARK  124  A    between atoms: _286  and  _287
REMARK  125  A    between atoms: _286  and  _289
REMARK  126  A    between atoms: _289  and  _290
REMARK  127  A    between atoms: _296  and  _298
REMARK  128  A    between atoms: _298  and  _299
REMARK  129  A    between atoms: _302  and  _304
REMARK  130  A    between atoms: _304  and  _305
REMARK  131  A    between atoms: _304  and  _307
REMARK  132  A    between atoms: _307  and  _308
REMARK  133  A    between atoms: _311  and  _313
REMARK  134  A    between atoms: _313  and  _314
REMARK  135  A    between atoms: _316  and  _318
REMARK  136  A    between atoms: _318  and  _319
REMARK  137  A    between atoms: _318  and  _321
REMARK  138  A    between atoms: _324  and  _326
REMARK  139  A    between atoms: _326  and  _327
REMARK  140  A    between atoms: _326  and  _329
REMARK  141  A    between atoms: _329  and  _330
REMARK  142  A    between atoms: _330  and  _331
REMARK  143  A    between atoms: _334  and  _336
REMARK  144  A    between atoms: _336  and  _337
REMARK  145  A    between atoms: _339  and  _341
REMARK  146  A    between atoms: _341  and  _342
REMARK  147  A    between atoms: _341  and  _344
REMARK  148  A    between atoms: _344  and  _345
REMARK  149  A    between atoms: _345  and  _346
REMARK  150  A    between atoms: _348  and  _350
REMARK  151  A    between atoms: _350  and  _351
REMARK  152  A    between atoms: _350  and  _353
REMARK  153  A    between atoms: _356  and  _358
REMARK  154  A    between atoms: _358  and  _359
REMARK  155  A    between atoms: _358  and  _361
REMARK  156  A    between atoms: _361  and  _362
REMARK  157  A    between atoms: _362  and  _363
REMARK  158  A    between atoms: _366  and  _368
REMARK  159  A    between atoms: _368  and  _369
REMARK  160  A    between atoms: _368  and  _371
REMARK  161  A    between atoms: _371  and  _372
REMARK  162  A    between atoms: _375  and  _377
REMARK  163  A    between atoms: _377  and  _378
REMARK  164  A    between atoms: _377  and  _380
REMARK  165  A    between atoms: _380  and  _381
REMARK  166  A    between atoms: _387  and  _389
REMARK  167  A    between atoms: _389  and  _390
REMARK  168  A    between atoms: _389  and  _392
REMARK  169  A    between atoms: _392  and  _393
REMARK  170  A    between atoms: _396  and  _398
REMARK  171  A    between atoms: _398  and  _399
REMARK  172  A    between atoms: _398  and  _401
REMARK  173  A    between atoms: _401  and  _402
REMARK  174  A    between atoms: _402  and  _403
REMARK  175  A    between atoms: _405  and  _407
REMARK  176  A    between atoms: _407  and  _408
REMARK  177  A    between atoms: _407  and  _410
REMARK  178  A    between atoms: _410  and  _411
REMARK  179  A    between atoms: _413  and  _415
REMARK  180  A    between atoms: _415  and  _416
REMARK  181  A    between atoms: _415  and  _418
REMARK  182  A    between atoms: _418  and  _419
REMARK  183  A    between atoms: _424  and  _426
REMARK  184  A    between atoms: _426  and  _427
REMARK  185  A    between atoms: _426  and  _429
REMARK  186  A    between atoms: _429  and  _430
REMARK  187  A    between atoms: _430  and  _431
REMARK  188  A    between atoms: _431  and  _432
REMARK  189  A    between atoms: _432  and  _433
REMARK  190  A    between atoms: _437  and  _439
REMARK  191  A    between atoms: _439  and  _440
REMARK  192  A    between atoms: _442  and  _444
REMARK  193  A    between atoms: _444  and  _445
REMARK  194  A    between atoms: _444  and  _447
REMARK  195  A    between atoms: _447  and  _448
REMARK  196  A    between atoms: _448  and  _449
REMARK  197  A    between atoms: _451  and  _453
REMARK  198  A    between atoms: _453  and  _454
REMARK  199  A    between atoms: _453  and  _456
REMARK  200  A    between atoms: _456  and  _457
REMARK  201  A    between atoms: _457  and  _458
REMARK  202  A    between atoms: _461  and  _463
REMARK  203  A    between atoms: _463  and  _464
REMARK  204  A    between atoms: _463  and  _466
REMARK  205  A    between atoms: _466  and  _467
REMARK  206  A    between atoms: _472  and  _474
REMARK  207  A    between atoms: _474  and  _475
REMARK  208  A    between atoms: _474  and  _477
REMARK  209  A    between atoms: _477  and  _478
REMARK  210  A    between atoms: _481  and  _483
REMARK  211  A    between atoms: _483  and  _484
REMARK  212  A    between atoms: _483  and  _486
REMARK  213  A    between atoms: _486  and  _487
REMARK  214  A    between atoms: _492  and  _493
REMARK  215  A    between atoms: _495  and  _497
REMARK  216  A    between atoms: _497  and  _498
REMARK  217  A    between atoms: _497  and  _500
REMARK  218  A    between atoms: _500  and  _501
REMARK  219  A    between atoms: _503  and  _505
REMARK  220  A    between atoms: _505  and  _506
REMARK  221  A    between atoms: _505  and  _508
REMARK  222  A    between atoms: _508  and  _509
REMARK  223  A    between atoms: _509  and  _510
REMARK  224  A    between atoms: _512  and  _514
REMARK  225  A    between atoms: _514  and  _515
REMARK  226  A    between atoms: _514  and  _517
REMARK  227  A    between atoms: _517  and  _518
REMARK  228  A    between atoms: _518  and  _519
REMARK  229  A    between atoms: _519  and  _520
REMARK  230  A    between atoms: _520  and  _521
REMARK  231  A    between atoms: _525  and  _527
REMARK  232  A    between atoms: _527  and  _528
REMARK  233  A    between atoms: _527  and  _530
REMARK  234  A    between atoms: _530  and  _531
REMARK  235  A    between atoms: _531  and  _532
REMARK  236  A    between atoms: _532  and  _533
REMARK  237  A    between atoms: _533  and  _534
REMARK  238  A    between atoms: _538  and  _540
REMARK  239  A    between atoms: _540  and  _541
REMARK  240  A    between atoms: _540  and  _543
REMARK  241  A    between atoms: _547  and  _548
REMARK  242  A    between atoms: _553  and  _555
REMARK  243  A    between atoms: _555  and  _556
REMARK  244  A    between atoms: _555  and  _558
REMARK  245  A    between atoms: _558  and  _559
REMARK  246  A    between atoms: _562  and  _564
REMARK  247  A    between atoms: _564  and  _565
REMARK  248  A    between atoms: _564  and  _567
REMARK  249  A    between atoms: _567  and  _568
REMARK  250  A    between atoms: _571  and  _573
REMARK  251  A    between atoms: _573  and  _574
REMARK  252  A    between atoms: _573  and  _576
REMARK  253  A    between atoms: _576  and  _577
REMARK  254  A    between atoms: _580  and  _582
REMARK  255  A    between atoms: _582  and  _583
REMARK  256  A    between atoms: _582  and  _585
REMARK  257  A    between atoms: _585  and  _586
REMARK  258  A    between atoms: _586  and  _587
REMARK                            x       y       z     vdW  Elec       q    Type
REMARK                         _______ _______ _______ _____ _____    ______ ____
ROOT
ATOM      1  O   HOH     1      20.436  -2.267  20.846  0.00  0.00    +0.000 OA
ENDROOT
TORSDOF 0
REMARK  Name = ../refined-set-2016/2ayr/2ayr_pocket.pdb
REMARK  258 active torsions:
REMARK  status: ('A' for Active; 'I' for Inactive)
REMARK    1  A    between atoms: _1  and  _3
REMARK    2  A    between atoms: _3  and  _4
REMARK    3  A    between atoms: _3  and  _6
REMARK    4  A    between atoms: _6  and  _7
REMARK    5  A    between atoms: _10  and  _12
REMARK    6  A    between atoms: _12  and  _13
REMARK    7  A    between atoms: _12  and  _15
REMARK    8  A    between atoms: _15  and  _16
REMARK    9  A    between atoms: _16  and  _17
REMARK   10  A    between atoms: _19  and  _21
REMARK   11  A    between atoms: _21  and  _22
REMARK   12  A    between atoms: _21  and  _24
REMARK   13  A    between atoms: _24  and  _25
REMARK   14  A    between atoms: _25  and  _26
REMARK   15  A    between atoms: _28  and  _30
REMARK   16  A    between atoms: _30  and  _31
REMARK   17  A    between atoms: _33  and  _35
REMARK   18  A    between atoms: _35  and  _36
REMARK   19  A    between atoms: _35  and  _38
REMARK   20  A    between atoms: _38  and  _39
REMARK   21  A    between atoms: _42  and  _44
REMARK   22  A    between atoms: _44  and  _45
REMARK   23  A    between atoms: _44  and  _47
REMARK   24  A    between atoms: _47  and  _48
REMARK   25  A    between atoms: _51  and  _53
REMARK   26  A    between atoms: _53  and  _54
REMARK   27  A    between atoms: _53  and  _56
REMARK   28  A    between atoms: _56  and  _57
REMARK   29  A    between atoms: _60  and  _62
REMARK   30  A    between atoms: _62  and  _63
REMARK   31  A    between atoms: _62  and  _65
REMARK   32  A    between atoms: _65  and  _66
REMARK   33  A    between atoms: _71  and  _73
REMARK   34  A    between atoms: _73  and  _74
REMARK   35  A    between atoms: _73  and  _76
REMARK   36  A    between atoms: _76  and  _77
REMARK   37  A    between atoms: _80  and  _82
REMARK   38  A    between atoms: _82  and  _83
REMARK   39  A    between atoms: _86  and  _88
REMARK   40  A    between atoms: _88  and  _89
REMARK   41  A    between atoms: _88  and  _91
REMARK   42  A    between atoms: _91  and  _92
REMARK   43  A    between atoms: _95  and  _97
REMARK   44  A    between atoms: _97  and  _98
REMARK   45  A    between atoms: _97  and  _100
REMARK   46  A    between atoms: _100  and  _101
REMARK   47  A    between atoms: _101  and  _102
REMARK   48  A    between atoms: _102  and  _103
REMARK   49  A    between atoms: _112  and  _114
REMARK   50  A    between atoms: _114  and  _115
REMARK   51  A    between atoms: _114  and  _117
REMARK   52  A    between atoms: _117  and  _118
REMARK   53  A    between atoms: _118  and  _119
REMARK   54  A    between atoms: _122  and  _124
REMARK   55  A    between atoms: _124  and  _125
REMARK   56  A    between atoms: _124  and  _127
REMARK   57  A    between atoms: _127  and  _128
REMARK   58  A    between atoms: _131  and  _133
REMARK   59  A    between atoms: _133  and  _134
REMARK   60  A    between atoms: _133  and  _136
REMARK   61  A    between atoms: _139  and  _141
REMARK   62  A    between atoms: _141  and  _142
REMARK   63  A    between atoms: _141  and  _144
REMARK   64  A    between atoms: _144  and  _145
REMARK   65  A    between atoms: _145  and  _146
REMARK   66  A    between atoms: _148  and  _150
REMARK   67  A    between atoms: _150  and  _151
REMARK   68  A    between atoms: _150  and  _153
REMARK   69  A    between atoms: _153  and  _154
REMARK   70  A    between atoms: _164  and  _166
REMARK   71  A    between atoms: _166  and  _167
REMARK   72  A    between atoms: _166  and  _169
REMARK   73  A    between atoms: _169  and  _170
REMARK   74  A    between atoms: _173  and  _175
REMARK   75  A    between atoms: _175  and  _176
REMARK   76  A    between atoms: _175  and  _178
REMARK   77  A    between atoms: _178  and  _179
REMARK   78  A    between atoms: _179  and  _180
REMARK   79  A    between atoms: _183  and  _185
REMARK   80  A    between atoms: _185  and  _186
REMARK   81  A    between atoms: _185  and  _188
REMARK   82  A    between atoms: _188  and  _189
REMARK   83  A    between atoms: _192  and  _194
REMARK   84  A    between atoms: _194  and  _195
REMARK   85  A    between atoms: _194  and  _197
REMARK   86  A    between atoms: _197  and  _198
REMARK   87  A    between atoms: _201  and  _203
REMARK   88  A    between atoms: _203  and  _204
REMARK   89  A    between atoms: _203  and  _206
REMARK   90  A    between atoms: _206  and  _207
REMARK   91  A    between atoms: _207  and  _208
REMARK   92  A    between atoms: _210  and  _212
REMARK   93  A    between atoms: _212  and  _213
REMARK   94  A    between atoms: _212  and  _215
REMARK   95  A    between atoms: _215  and  _216
REMARK   96  A    between atoms: _219  and  _221
REMARK   97  A    between atoms: _221  and  _222
REMARK   98  A    between atoms: _224  and  _226
REMARK   99  A    between atoms: _226  and  _227
REMARK  100  A    between atoms: _226  and  _229
REMARK  101  A    between atoms: _229  and  _230
REMARK  102  A    between atoms: _233  and  _235
REMARK  103  A    between atoms: _235  and  _236
REMARK  104  A    between atoms: _235  and  _238
REMARK  105  A    between atoms: _241  and  _243
REMARK  106  A    between atoms: _243  and  _244
REMARK  107  A    between atoms: _243  and  _246
REMARK  108  A    between atoms: _246  and  _247
REMARK  109  A    between atoms: _247  and  _248
REMARK  110  A    between atoms: _248  and  _249
REMARK  111  A    between atoms: _258  and  _260
REMARK  112  A    between atoms: _260  and  _261
REMARK  113  A    between atoms: _260  and  _263
REMARK  114  A    between atoms: _263  and  _264
REMARK  115  A    between atoms: _266  and  _268
REMARK  116  A    between atoms: _268  and  _269
REMARK  117  A    between atoms: _268  and  _271
REMARK  118  A    between atoms: _271  and  _272
REMARK  119  A    between atoms: _275  and  _277
REMARK  120  A    between atoms: _277  and  _278
REMARK  121  A    between atoms: _277  and  _280
REMARK  122  A    between atoms: _280  and  _281
REMARK  123  A    between atoms: _284  and  _286
REMARK  124  A    between atoms: _286  and  _287
REMARK  125  A    between atoms: _286  and  _289
REMARK  126  A    between atoms: _289  and  _290
REMARK  127  A    between atoms: _296  and  _298
REMARK  128  A    between atoms: _298  and  _299
REMARK  129  A    between atoms: _302  and  _304
REMARK  130  A    between atoms: _304  and  _305
REMARK  131  A    between atoms: _304  and  _307
REMARK  132  A    between atoms: _307  and  _308
REMARK  133  A    between atoms: _311  and  _313
REMARK  134  A    between atoms: _313  and  _314
REMARK  135  A    between atoms: _316  and  _318
REMARK  136  A    between atoms: _318  and  _319
REMARK  137  A    between atoms: _318  and  _321
REMARK  138  A    between atoms: _324  and  _326
REMARK  139  A    between atoms: _326  and  _327
REMARK  140  A    between atoms: _326  and  _329
REMARK  141  A    between atoms: _329  and  _330
REMARK  142  A    between atoms: _330  and  _331
REMARK  143  A    between atoms: _334  and  _336
REMARK  144  A    between atoms: _336  and  _337
REMARK  145  A    between atoms: _339  and  _341
REMARK  146  A    between atoms: _341  and  _342
REMARK  147  A    between atoms: _341  and  _344
REMARK  148  A    between atoms: _344  and  _345
REMARK  149  A    between atoms: _345  and  _346
REMARK  150  A    between atoms: _348  and  _350
REMARK  151  A    between atoms: _350  and  _351
REMARK  152  A    between atoms: _350  and  _353
REMARK  153  A    between atoms: _356  and  _358
REMARK  154  A    between atoms: _358  and  _359
REMARK  155  A    between atoms: _358  and  _361
REMARK  156  A    between atoms: _361  and  _362
REMARK  157  A    between atoms: _362  and  _363
REMARK  158  A    between atoms: _366  and  _368
REMARK  159  A    between atoms: _368  and  _369
REMARK  160  A    between atoms: _368  and  _371
REMARK  161  A    between atoms: _371  and  _372
REMARK  162  A    between atoms: _375  and  _377
REMARK  163  A    between atoms: _377  and  _378
REMARK  164  A    between atoms: _377  and  _380
REMARK  165  A    between atoms: _380  and  _381
REMARK  166  A    between atoms: _387  and  _389
REMARK  167  A    between atoms: _389  and  _390
REMARK  168  A    between atoms: _389  and  _392
REMARK  169  A    between atoms: _392  and  _393
REMARK  170  A    between atoms: _396  and  _398
REMARK  171  A    between atoms: _398  and  _399
REMARK  172  A    between atoms: _398  and  _401
REMARK  173  A    between atoms: _401  and  _402
REMARK  174  A    between atoms: _402  and  _403
REMARK  175  A    between atoms: _405  and  _407
REMARK  176  A    between atoms: _407  and  _408
REMARK  177  A    between atoms: _407  and  _410
REMARK  178  A    between atoms: _410  and  _411
REMARK  179  A    between atoms: _413  and  _415
REMARK  180  A    between atoms: _415  and  _416
REMARK  181  A    between atoms: _415  and  _418
REMARK  182  A    between atoms: _418  and  _419
REMARK  183  A    between atoms: _424  and  _426
REMARK  184  A    between atoms: _426  and  _427
REMARK  185  A    between atoms: _426  and  _429
REMARK  186  A    between atoms: _429  and  _430
REMARK  187  A    between atoms: _430  and  _431
REMARK  188  A    between atoms: _431  and  _432
REMARK  189  A    between atoms: _432  and  _433
REMARK  190  A    between atoms: _437  and  _439
REMARK  191  A    between atoms: _439  and  _440
REMARK  192  A    between atoms: _442  and  _444
REMARK  193  A    between atoms: _444  and  _445
REMARK  194  A    between atoms: _444  and  _447
REMARK  195  A    between atoms: _447  and  _448
REMARK  196  A    between atoms: _448  and  _449
REMARK  197  A    between atoms: _451  and  _453
REMARK  198  A    between atoms: _453  and  _454
REMARK  199  A    between atoms: _453  and  _456
REMARK  200  A    between atoms: _456  and  _457
REMARK  201  A    between atoms: _457  and  _458
REMARK  202  A    between atoms: _461  and  _463
REMARK  203  A    between atoms: _463  and  _464
REMARK  204  A    between atoms: _463  and  _466
REMARK  205  A    between atoms: _466  and  _467
REMARK  206  A    between atoms: _472  and  _474
REMARK  207  A    between atoms: _474  and  _475
REMARK  208  A    between atoms: _474  and  _477
REMARK  209  A    between atoms: _477  and  _478
REMARK  210  A    between atoms: _481  and  _483
REMARK  211  A    between atoms: _483  and  _484
REMARK  212  A    between atoms: _483  and  _486
REMARK  213  A    between atoms: _486  and  _487
REMARK  214  A    between atoms: _492  and  _493
REMARK  215  A    between atoms: _495  and  _497
REMARK  216  A    between atoms: _497  and  _498
REMARK  217  A    between atoms: _497  and  _500
REMARK  218  A    between atoms: _500  and  _501
REMARK  219  A    between atoms: _503  and  _505
REMARK  220  A    between atoms: _505  and  _506
REMARK  221  A    between atoms: _505  and  _508
REMARK  222  A    between atoms: _508  and  _509
REMARK  223  A    between atoms: _509  and  _510
REMARK  224  A    between atoms: _512  and  _514
REMARK  225  A    between atoms: _514  and  _515
REMARK  226  A    between atoms: _514  and  _517
REMARK  227  A    between atoms: _517  and  _518
REMARK  228  A    between atoms: _518  and  _519
REMARK  229  A    between atoms: _519  and  _520
REMARK  230  A    between atoms: _520  and  _521
REMARK  231  A    between atoms: _525  and  _527
REMARK  232  A    between atoms: _527  and  _528
REMARK  233  A    between atoms: _527  and  _530
REMARK  234  A    between atoms: _530  and  _531
REMARK  235  A    between atoms: _531  and  _532
REMARK  236  A    between atoms: _532  and  _533
REMARK  237  A    between atoms: _533  and  _534
REMARK  238  A    between atoms: _538  and  _540
REMARK  239  A    between atoms: _540  and  _541
REMARK  240  A    between atoms: _540  and  _543
REMARK  241  A    between atoms: _547  and  _548
REMARK  242  A    between atoms: _553  and  _555
REMARK  243  A    between atoms: _555  and  _556
REMARK  244  A    between atoms: _555  and  _558
REMARK  245  A    between atoms: _558  and  _559
REMARK  246  A    between atoms: _562  and  _564
REMARK  247  A    between atoms: _564  and  _565
REMARK  248  A    between atoms: _564  and  _567
REMARK  249  A    between atoms: _567  and  _568
REMARK  250  A    between atoms: _571  and  _573
REMARK  251  A    between atoms: _573  and  _574
REMARK  252  A    between atoms: _573  and  _576
REMARK  253  A    between atoms: _576  and  _577
REMARK  254  A    between atoms: _580  and  _582
REMARK  255  A    between atoms: _582  and  _583
REMARK  256  A    between atoms: _582  and  _585
REMARK  257  A    between atoms: _585  and  _586
REMARK  258  A    between atoms: _586  and  _587
REMARK                            x       y       z     vdW  Elec       q    Type
REMARK                         _______ _______ _______ _____ _____    ______ ____
ROOT
ATOM      1  O   HOH     1      31.627 -10.818  21.093  0.00  0.00    +0.000 OA
ENDROOT
TORSDOF 0
REMARK  Name = ../refined-set-2016/2ayr/2ayr_pocket.pdb
REMARK  258 active torsions:
REMARK  status: ('A' for Active; 'I' for Inactive)
REMARK    1  A    between atoms: _1  and  _3
REMARK    2  A    between atoms: _3  and  _4
REMARK    3  A    between atoms: _3  and  _6
REMARK    4  A    between atoms: _6  and  _7
REMARK    5  A    between atoms: _10  and  _12
REMARK    6  A    between atoms: _12  and  _13
REMARK    7  A    between atoms: _12  and  _15
REMARK    8  A    between atoms: _15  and  _16
REMARK    9  A    between atoms: _16  and  _17
REMARK   10  A    between atoms: _19  and  _21
REMARK   11  A    between atoms: _21  and  _22
REMARK   12  A    between atoms: _21  and  _24
REMARK   13  A    between atoms: _24  and  _25
REMARK   14  A    between atoms: _25  and  _26
REMARK   15  A    between atoms: _28  and  _30
REMARK   16  A    between atoms: _30  and  _31
REMARK   17  A    between atoms: _33  and  _35
REMARK   18  A    between atoms: _35  and  _36
REMARK   19  A    between atoms: _35  and  _38
REMARK   20  A    between atoms: _38  and  _39
REMARK   21  A    between atoms: _42  and  _44
REMARK   22  A    between atoms: _44  and  _45
REMARK   23  A    between atoms: _44  and  _47
REMARK   24  A    between atoms: _47  and  _48
REMARK   25  A    between atoms: _51  and  _53
REMARK   26  A    between atoms: _53  and  _54
REMARK   27  A    between atoms: _53  and  _56
REMARK   28  A    between atoms: _56  and  _57
REMARK   29  A    between atoms: _60  and  _62
REMARK   30  A    between atoms: _62  and  _63
REMARK   31  A    between atoms: _62  and  _65
REMARK   32  A    between atoms: _65  and  _66
REMARK   33  A    between atoms: _71  and  _73
REMARK   34  A    between atoms: _73  and  _74
REMARK   35  A    between atoms: _73  and  _76
REMARK   36  A    between atoms: _76  and  _77
REMARK   37  A    between atoms: _80  and  _82
REMARK   38  A    between atoms: _82  and  _83
REMARK   39  A    between atoms: _86  and  _88
REMARK   40  A    between atoms: _88  and  _89
REMARK   41  A    between atoms: _88  and  _91
REMARK   42  A    between atoms: _91  and  _92
REMARK   43  A    between atoms: _95  and  _97
REMARK   44  A    between atoms: _97  and  _98
REMARK   45  A    between atoms: _97  and  _100
REMARK   46  A    between atoms: _100  and  _101
REMARK   47  A    between atoms: _101  and  _102
REMARK   48  A    between atoms: _102  and  _103
REMARK   49  A    between atoms: _112  and  _114
REMARK   50  A    between atoms: _114  and  _115
REMARK   51  A    between atoms: _114  and  _117
REMARK   52  A    between atoms: _117  and  _118
REMARK   53  A    between atoms: _118  and  _119
REMARK   54  A    between atoms: _122  and  _124
REMARK   55  A    between atoms: _124  and  _125
REMARK   56  A    between atoms: _124  and  _127
REMARK   57  A    between atoms: _127  and  _128
REMARK   58  A    between atoms: _131  and  _133
REMARK   59  A    between atoms: _133  and  _134
REMARK   60  A    between atoms: _133  and  _136
REMARK   61  A    between atoms: _139  and  _141
REMARK   62  A    between atoms: _141  and  _142
REMARK   63  A    between atoms: _141  and  _144
REMARK   64  A    between atoms: _144  and  _145
REMARK   65  A    between atoms: _145  and  _146
REMARK   66  A    between atoms: _148  and  _150
REMARK   67  A    between atoms: _150  and  _151
REMARK   68  A    between atoms: _150  and  _153
REMARK   69  A    between atoms: _153  and  _154
REMARK   70  A    between atoms: _164  and  _166
REMARK   71  A    between atoms: _166  and  _167
REMARK   72  A    between atoms: _166  and  _169
REMARK   73  A    between atoms: _169  and  _170
REMARK   74  A    between atoms: _173  and  _175
REMARK   75  A    between atoms: _175  and  _176
REMARK   76  A    between atoms: _175  and  _178
REMARK   77  A    between atoms: _178  and  _179
REMARK   78  A    between atoms: _179  and  _180
REMARK   79  A    between atoms: _183  and  _185
REMARK   80  A    between atoms: _185  and  _186
REMARK   81  A    between atoms: _185  and  _188
REMARK   82  A    between atoms: _188  and  _189
REMARK   83  A    between atoms: _192  and  _194
REMARK   84  A    between atoms: _194  and  _195
REMARK   85  A    between atoms: _194  and  _197
REMARK   86  A    between atoms: _197  and  _198
REMARK   87  A    between atoms: _201  and  _203
REMARK   88  A    between atoms: _203  and  _204
REMARK   89  A    between atoms: _203  and  _206
REMARK   90  A    between atoms: _206  and  _207
REMARK   91  A    between atoms: _207  and  _208
REMARK   92  A    between atoms: _210  and  _212
REMARK   93  A    between atoms: _212  and  _213
REMARK   94  A    between atoms: _212  and  _215
REMARK   95  A    between atoms: _215  and  _216
REMARK   96  A    between atoms: _219  and  _221
REMARK   97  A    between atoms: _221  and  _222
REMARK   98  A    between atoms: _224  and  _226
REMARK   99  A    between atoms: _226  and  _227
REMARK  100  A    between atoms: _226  and  _229
REMARK  101  A    between atoms: _229  and  _230
REMARK  102  A    between atoms: _233  and  _235
REMARK  103  A    between atoms: _235  and  _236
REMARK  104  A    between atoms: _235  and  _238
REMARK  105  A    between atoms: _241  and  _243
REMARK  106  A    between atoms: _243  and  _244
REMARK  107  A    between atoms: _243  and  _246
REMARK  108  A    between atoms: _246  and  _247
REMARK  109  A    between atoms: _247  and  _248
REMARK  110  A    between atoms: _248  and  _249
REMARK  111  A    between atoms: _258  and  _260
REMARK  112  A    between atoms: _260  and  _261
REMARK  113  A    between atoms: _260  and  _263
REMARK  114  A    between atoms: _263  and  _264
REMARK  115  A    between atoms: _266  and  _268
REMARK  116  A    between atoms: _268  and  _269
REMARK  117  A    between atoms: _268  and  _271
REMARK  118  A    between atoms: _271  and  _272
REMARK  119  A    between atoms: _275  and  _277
REMARK  120  A    between atoms: _277  and  _278
REMARK  121  A    between atoms: _277  and  _280
REMARK  122  A    between atoms: _280  and  _281
REMARK  123  A    between atoms: _284  and  _286
REMARK  124  A    between atoms: _286  and  _287
REMARK  125  A    between atoms: _286  and  _289
REMARK  126  A    between atoms: _289  and  _290
REMARK  127  A    between atoms: _296  and  _298
REMARK  128  A    between atoms: _298  and  _299
REMARK  129  A    between atoms: _302  and  _304
REMARK  130  A    between atoms: _304  and  _305
REMARK  131  A    between atoms: _304  and  _307
REMARK  132  A    between atoms: _307  and  _308
REMARK  133  A    between atoms: _311  and  _313
REMARK  134  A    between atoms: _313  and  _314
REMARK  135  A    between atoms: _316  and  _318
REMARK  136  A    between atoms: _318  and  _319
REMARK  137  A    between atoms: _318  and  _321
REMARK  138  A    between atoms: _324  and  _326
REMARK  139  A    between atoms: _326  and  _327
REMARK  140  A    between atoms: _326  and  _329
REMARK  141  A    between atoms: _329  and  _330
REMARK  142  A    between atoms: _330  and  _331
REMARK  143  A    between atoms: _334  and  _336
REMARK  144  A    between atoms: _336  and  _337
REMARK  145  A    between atoms: _339  and  _341
REMARK  146  A    between atoms: _341  and  _342
REMARK  147  A    between atoms: _341  and  _344
REMARK  148  A    between atoms: _344  and  _345
REMARK  149  A    between atoms: _345  and  _346
REMARK  150  A    between atoms: _348  and  _350
REMARK  151  A    between atoms: _350  and  _351
REMARK  152  A    between atoms: _350  and  _353
REMARK  153  A    between atoms: _356  and  _358
REMARK  154  A    between atoms: _358  and  _359
REMARK  155  A    between atoms: _358  and  _361
REMARK  156  A    between atoms: _361  and  _362
REMARK  157  A    between atoms: _362  and  _363
REMARK  158  A    between atoms: _366  and  _368
REMARK  159  A    between atoms: _368  and  _369
REMARK  160  A    between atoms: _368  and  _371
REMARK  161  A    between atoms: _371  and  _372
REMARK  162  A    between atoms: _375  and  _377
REMARK  163  A    between atoms: _377  and  _378
REMARK  164  A    between atoms: _377  and  _380
REMARK  165  A    between atoms: _380  and  _381
REMARK  166  A    between atoms: _387  and  _389
REMARK  167  A    between atoms: _389  and  _390
REMARK  168  A    between atoms: _389  and  _392
REMARK  169  A    between atoms: _392  and  _393
REMARK  170  A    between atoms: _396  and  _398
REMARK  171  A    between atoms: _398  and  _399
REMARK  172  A    between atoms: _398  and  _401
REMARK  173  A    between atoms: _401  and  _402
REMARK  174  A    between atoms: _402  and  _403
REMARK  175  A    between atoms: _405  and  _407
REMARK  176  A    between atoms: _407  and  _408
REMARK  177  A    between atoms: _407  and  _410
REMARK  178  A    between atoms: _410  and  _411
REMARK  179  A    between atoms: _413  and  _415
REMARK  180  A    between atoms: _415  and  _416
REMARK  181  A    between atoms: _415  and  _418
REMARK  182  A    between atoms: _418  and  _419
REMARK  183  A    between atoms: _424  and  _426
REMARK  184  A    between atoms: _426  and  _427
REMARK  185  A    between atoms: _426  and  _429
REMARK  186  A    between atoms: _429  and  _430
REMARK  187  A    between atoms: _430  and  _431
REMARK  188  A    between atoms: _431  and  _432
REMARK  189  A    between atoms: _432  and  _433
REMARK  190  A    between atoms: _437  and  _439
REMARK  191  A    between atoms: _439  and  _440
REMARK  192  A    between atoms: _442  and  _444
REMARK  193  A    between atoms: _444  and  _445
REMARK  194  A    between atoms: _444  and  _447
REMARK  195  A    between atoms: _447  and  _448
REMARK  196  A    between atoms: _448  and  _449
REMARK  197  A    between atoms: _451  and  _453
REMARK  198  A    between atoms: _453  and  _454
REMARK  199  A    between atoms: _453  and  _456
REMARK  200  A    between atoms: _456  and  _457
REMARK  201  A    between atoms: _457  and  _458
REMARK  202  A    between atoms: _461  and  _463
REMARK  203  A    between atoms: _463  and  _464
REMARK  204  A    between atoms: _463  and  _466
REMARK  205  A    between atoms: _466  and  _467
REMARK  206  A    between atoms: _472  and  _474
REMARK  207  A    between atoms: _474  and  _475
REMARK  208  A    between atoms: _474  and  _477
REMARK  209  A    between atoms: _477  and  _478
REMARK  210  A    between atoms: _481  and  _483
REMARK  211  A    between atoms: _483  and  _484
REMARK  212  A    between atoms: _483  and  _486
REMARK  213  A    between atoms: _486  and  _487
REMARK  214  A    between atoms: _492  and  _493
REMARK  215  A    between atoms: _495  and  _497
REMARK  216  A    between atoms: _497  and  _498
REMARK  217  A    between atoms: _497  and  _500
REMARK  218  A    between atoms: _500  and  _501
REMARK  219  A    between atoms: _503  and  _505
REMARK  220  A    between atoms: _505  and  _506
REMARK  221  A    between atoms: _505  and  _508
REMARK  222  A    between atoms: _508  and  _509
REMARK  223  A    between atoms: _509  and  _510
REMARK  224  A    between atoms: _512  and  _514
REMARK  225  A    between atoms: _514  and  _515
REMARK  226  A    between atoms: _514  and  _517
REMARK  227  A    between atoms: _517  and  _518
REMARK  228  A    between atoms: _518  and  _519
REMARK  229  A    between atoms: _519  and  _520
REMARK  230  A    between atoms: _520  and  _521
REMARK  231  A    between atoms: _525  and  _527
REMARK  232  A    between atoms: _527  and  _528
REMARK  233  A    between atoms: _527  and  _530
REMARK  234  A    between atoms: _530  and  _531
REMARK  235  A    between atoms: _531  and  _532
REMARK  236  A    between atoms: _532  and  _533
REMARK  237  A    between atoms: _533  and  _534
REMARK  238  A    between atoms: _538  and  _540
REMARK  239  A    between atoms: _540  and  _541
REMARK  240  A    between atoms: _540  and  _543
REMARK  241  A    between atoms: _547  and  _548
REMARK  242  A    between atoms: _553  and  _555
REMARK  243  A    between atoms: _555  and  _556
REMARK  244  A    between atoms: _555  and  _558
REMARK  245  A    between atoms: _558  and  _559
REMARK  246  A    between atoms: _562  and  _564
REMARK  247  A    between atoms: _564  and  _565
REMARK  248  A    between atoms: _564  and  _567
REMARK  249  A    between atoms: _567  and  _568
REMARK  250  A    between atoms: _571  and  _573
REMARK  251  A    between atoms: _573  and  _574
REMARK  252  A    between atoms: _573  and  _576
REMARK  253  A    between atoms: _576  and  _577
REMARK  254  A    between atoms: _580  and  _582
REMARK  255  A    between atoms: _582  and  _583
REMARK  256  A    between atoms: _582  and  _585
REMARK  257  A    between atoms: _585  and  _586
REMARK  258  A    between atoms: _586  and  _587
REMARK                            x       y       z     vdW  Elec       q    Type
REMARK                         _______ _______ _______ _____ _____    ______ ____
ROOT
ATOM      1  O   HOH     1      33.802  -7.459  19.541  0.00  0.00    +0.000 OA
ENDROOT
TORSDOF 0
REMARK  Name = ../refined-set-2016/2ayr/2ayr_pocket.pdb
REMARK  258 active torsions:
REMARK  status: ('A' for Active; 'I' for Inactive)
REMARK    1  A    between atoms: _1  and  _3
REMARK    2  A    between atoms: _3  and  _4
REMARK    3  A    between atoms: _3  and  _6
REMARK    4  A    between atoms: _6  and  _7
REMARK    5  A    between atoms: _10  and  _12
REMARK    6  A    between atoms: _12  and  _13
REMARK    7  A    between atoms: _12  and  _15
REMARK    8  A    between atoms: _15  and  _16
REMARK    9  A    between atoms: _16  and  _17
REMARK   10  A    between atoms: _19  and  _21
REMARK   11  A    between atoms: _21  and  _22
REMARK   12  A    between atoms: _21  and  _24
REMARK   13  A    between atoms: _24  and  _25
REMARK   14  A    between atoms: _25  and  _26
REMARK   15  A    between atoms: _28  and  _30
REMARK   16  A    between atoms: _30  and  _31
REMARK   17  A    between atoms: _33  and  _35
REMARK   18  A    between atoms: _35  and  _36
REMARK   19  A    between atoms: _35  and  _38
REMARK   20  A    between atoms: _38  and  _39
REMARK   21  A    between atoms: _42  and  _44
REMARK   22  A    between atoms: _44  and  _45
REMARK   23  A    between atoms: _44  and  _47
REMARK   24  A    between atoms: _47  and  _48
REMARK   25  A    between atoms: _51  and  _53
REMARK   26  A    between atoms: _53  and  _54
REMARK   27  A    between atoms: _53  and  _56
REMARK   28  A    between atoms: _56  and  _57
REMARK   29  A    between atoms: _60  and  _62
REMARK   30  A    between atoms: _62  and  _63
REMARK   31  A    between atoms: _62  and  _65
REMARK   32  A    between atoms: _65  and  _66
REMARK   33  A    between atoms: _71  and  _73
REMARK   34  A    between atoms: _73  and  _74
REMARK   35  A    between atoms: _73  and  _76
REMARK   36  A    between atoms: _76  and  _77
REMARK   37  A    between atoms: _80  and  _82
REMARK   38  A    between atoms: _82  and  _83
REMARK   39  A    between atoms: _86  and  _88
REMARK   40  A    between atoms: _88  and  _89
REMARK   41  A    between atoms: _88  and  _91
REMARK   42  A    between atoms: _91  and  _92
REMARK   43  A    between atoms: _95  and  _97
REMARK   44  A    between atoms: _97  and  _98
REMARK   45  A    between atoms: _97  and  _100
REMARK   46  A    between atoms: _100  and  _101
REMARK   47  A    between atoms: _101  and  _102
REMARK   48  A    between atoms: _102  and  _103
REMARK   49  A    between atoms: _112  and  _114
REMARK   50  A    between atoms: _114  and  _115
REMARK   51  A    between atoms: _114  and  _117
REMARK   52  A    between atoms: _117  and  _118
REMARK   53  A    between atoms: _118  and  _119
REMARK   54  A    between atoms: _122  and  _124
REMARK   55  A    between atoms: _124  and  _125
REMARK   56  A    between atoms: _124  and  _127
REMARK   57  A    between atoms: _127  and  _128
REMARK   58  A    between atoms: _131  and  _133
REMARK   59  A    between atoms: _133  and  _134
REMARK   60  A    between atoms: _133  and  _136
REMARK   61  A    between atoms: _139  and  _141
REMARK   62  A    between atoms: _141  and  _142
REMARK   63  A    between atoms: _141  and  _144
REMARK   64  A    between atoms: _144  and  _145
REMARK   65  A    between atoms: _145  and  _146
REMARK   66  A    between atoms: _148  and  _150
REMARK   67  A    between atoms: _150  and  _151
REMARK   68  A    between atoms: _150  and  _153
REMARK   69  A    between atoms: _153  and  _154
REMARK   70  A    between atoms: _164  and  _166
REMARK   71  A    between atoms: _166  and  _167
REMARK   72  A    between atoms: _166  and  _169
REMARK   73  A    between atoms: _169  and  _170
REMARK   74  A    between atoms: _173  and  _175
REMARK   75  A    between atoms: _175  and  _176
REMARK   76  A    between atoms: _175  and  _178
REMARK   77  A    between atoms: _178  and  _179
REMARK   78  A    between atoms: _179  and  _180
REMARK   79  A    between atoms: _183  and  _185
REMARK   80  A    between atoms: _185  and  _186
REMARK   81  A    between atoms: _185  and  _188
REMARK   82  A    between atoms: _188  and  _189
REMARK   83  A    between atoms: _192  and  _194
REMARK   84  A    between atoms: _194  and  _195
REMARK   85  A    between atoms: _194  and  _197
REMARK   86  A    between atoms: _197  and  _198
REMARK   87  A    between atoms: _201  and  _203
REMARK   88  A    between atoms: _203  and  _204
REMARK   89  A    between atoms: _203  and  _206
REMARK   90  A    between atoms: _206  and  _207
REMARK   91  A    between atoms: _207  and  _208
REMARK   92  A    between atoms: _210  and  _212
REMARK   93  A    between atoms: _212  and  _213
REMARK   94  A    between atoms: _212  and  _215
REMARK   95  A    between atoms: _215  and  _216
REMARK   96  A    between atoms: _219  and  _221
REMARK   97  A    between atoms: _221  and  _222
REMARK   98  A    between atoms: _224  and  _226
REMARK   99  A    between atoms: _226  and  _227
REMARK  100  A    between atoms: _226  and  _229
REMARK  101  A    between atoms: _229  and  _230
REMARK  102  A    between atoms: _233  and  _235
REMARK  103  A    between atoms: _235  and  _236
REMARK  104  A    between atoms: _235  and  _238
REMARK  105  A    between atoms: _241  and  _243
REMARK  106  A    between atoms: _243  and  _244
REMARK  107  A    between atoms: _243  and  _246
REMARK  108  A    between atoms: _246  and  _247
REMARK  109  A    between atoms: _247  and  _248
REMARK  110  A    between atoms: _248  and  _249
REMARK  111  A    between atoms: _258  and  _260
REMARK  112  A    between atoms: _260  and  _261
REMARK  113  A    between atoms: _260  and  _263
REMARK  114  A    between atoms: _263  and  _264
REMARK  115  A    between atoms: _266  and  _268
REMARK  116  A    between atoms: _268  and  _269
REMARK  117  A    between atoms: _268  and  _271
REMARK  118  A    between atoms: _271  and  _272
REMARK  119  A    between atoms: _275  and  _277
REMARK  120  A    between atoms: _277  and  _278
REMARK  121  A    between atoms: _277  and  _280
REMARK  122  A    between atoms: _280  and  _281
REMARK  123  A    between atoms: _284  and  _286
REMARK  124  A    between atoms: _286  and  _287
REMARK  125  A    between atoms: _286  and  _289
REMARK  126  A    between atoms: _289  and  _290
REMARK  127  A    between atoms: _296  and  _298
REMARK  128  A    between atoms: _298  and  _299
REMARK  129  A    between atoms: _302  and  _304
REMARK  130  A    between atoms: _304  and  _305
REMARK  131  A    between atoms: _304  and  _307
REMARK  132  A    between atoms: _307  and  _308
REMARK  133  A    between atoms: _311  and  _313
REMARK  134  A    between atoms: _313  and  _314
REMARK  135  A    between atoms: _316  and  _318
REMARK  136  A    between atoms: _318  and  _319
REMARK  137  A    between atoms: _318  and  _321
REMARK  138  A    between atoms: _324  and  _326
REMARK  139  A    between atoms: _326  and  _327
REMARK  140  A    between atoms: _326  and  _329
REMARK  141  A    between atoms: _329  and  _330
REMARK  142  A    between atoms: _330  and  _331
REMARK  143  A    between atoms: _334  and  _336
REMARK  144  A    between atoms: _336  and  _337
REMARK  145  A    between atoms: _339  and  _341
REMARK  146  A    between atoms: _341  and  _342
REMARK  147  A    between atoms: _341  and  _344
REMARK  148  A    between atoms: _344  and  _345
REMARK  149  A    between atoms: _345  and  _346
REMARK  150  A    between atoms: _348  and  _350
REMARK  151  A    between atoms: _350  and  _351
REMARK  152  A    between atoms: _350  and  _353
REMARK  153  A    between atoms: _356  and  _358
REMARK  154  A    between atoms: _358  and  _359
REMARK  155  A    between atoms: _358  and  _361
REMARK  156  A    between atoms: _361  and  _362
REMARK  157  A    between atoms: _362  and  _363
REMARK  158  A    between atoms: _366  and  _368
REMARK  159  A    between atoms: _368  and  _369
REMARK  160  A    between atoms: _368  and  _371
REMARK  161  A    between atoms: _371  and  _372
REMARK  162  A    between atoms: _375  and  _377
REMARK  163  A    between atoms: _377  and  _378
REMARK  164  A    between atoms: _377  and  _380
REMARK  165  A    between atoms: _380  and  _381
REMARK  166  A    between atoms: _387  and  _389
REMARK  167  A    between atoms: _389  and  _390
REMARK  168  A    between atoms: _389  and  _392
REMARK  169  A    between atoms: _392  and  _393
REMARK  170  A    between atoms: _396  and  _398
REMARK  171  A    between atoms: _398  and  _399
REMARK  172  A    between atoms: _398  and  _401
REMARK  173  A    between atoms: _401  and  _402
REMARK  174  A    between atoms: _402  and  _403
REMARK  175  A    between atoms: _405  and  _407
REMARK  176  A    between atoms: _407  and  _408
REMARK  177  A    between atoms: _407  and  _410
REMARK  178  A    between atoms: _410  and  _411
REMARK  179  A    between atoms: _413  and  _415
REMARK  180  A    between atoms: _415  and  _416
REMARK  181  A    between atoms: _415  and  _418
REMARK  182  A    between atoms: _418  and  _419
REMARK  183  A    between atoms: _424  and  _426
REMARK  184  A    between atoms: _426  and  _427
REMARK  185  A    between atoms: _426  and  _429
REMARK  186  A    between atoms: _429  and  _430
REMARK  187  A    between atoms: _430  and  _431
REMARK  188  A    between atoms: _431  and  _432
REMARK  189  A    between atoms: _432  and  _433
REMARK  190  A    between atoms: _437  and  _439
REMARK  191  A    between atoms: _439  and  _440
REMARK  192  A    between atoms: _442  and  _444
REMARK  193  A    between atoms: _444  and  _445
REMARK  194  A    between atoms: _444  and  _447
REMARK  195  A    between atoms: _447  and  _448
REMARK  196  A    between atoms: _448  and  _449
REMARK  197  A    between atoms: _451  and  _453
REMARK  198  A    between atoms: _453  and  _454
REMARK  199  A    between atoms: _453  and  _456
REMARK  200  A    between atoms: _456  and  _457
REMARK  201  A    between atoms: _457  and  _458
REMARK  202  A    between atoms: _461  and  _463
REMARK  203  A    between atoms: _463  and  _464
REMARK  204  A    between atoms: _463  and  _466
REMARK  205  A    between atoms: _466  and  _467
REMARK  206  A    between atoms: _472  and  _474
REMARK  207  A    between atoms: _474  and  _475
REMARK  208  A    between atoms: _474  and  _477
REMARK  209  A    between atoms: _477  and  _478
REMARK  210  A    between atoms: _481  and  _483
REMARK  211  A    between atoms: _483  and  _484
REMARK  212  A    between atoms: _483  and  _486
REMARK  213  A    between atoms: _486  and  _487
REMARK  214  A    between atoms: _492  and  _493
REMARK  215  A    between atoms: _495  and  _497
REMARK  216  A    between atoms: _497  and  _498
REMARK  217  A    between atoms: _497  and  _500
REMARK  218  A    between atoms: _500  and  _501
REMARK  219  A    between atoms: _503  and  _505
REMARK  220  A    between atoms: _505  and  _506
REMARK  221  A    between atoms: _505  and  _508
REMARK  222  A    between atoms: _508  and  _509
REMARK  223  A    between atoms: _509  and  _510
REMARK  224  A    between atoms: _512  and  _514
REMARK  225  A    between atoms: _514  and  _515
REMARK  226  A    between atoms: _514  and  _517
REMARK  227  A    between atoms: _517  and  _518
REMARK  228  A    between atoms: _518  and  _519
REMARK  229  A    between atoms: _519  and  _520
REMARK  230  A    between atoms: _520  and  _521
REMARK  231  A    between atoms: _525  and  _527
REMARK  232  A    between atoms: _527  and  _528
REMARK  233  A    between atoms: _527  and  _530
REMARK  234  A    between atoms: _530  and  _531
REMARK  235  A    between atoms: _531  and  _532
REMARK  236  A    between atoms: _532  and  _533
REMARK  237  A    between atoms: _533  and  _534
REMARK  238  A    between atoms: _538  and  _540
REMARK  239  A    between atoms: _540  and  _541
REMARK  240  A    between atoms: _540  and  _543
REMARK  241  A    between atoms: _547  and  _548
REMARK  242  A    between atoms: _553  and  _555
REMARK  243  A    between atoms: _555  and  _556
REMARK  244  A    between atoms: _555  and  _558
REMARK  245  A    between atoms: _558  and  _559
REMARK  246  A    between atoms: _562  and  _564
REMARK  247  A    between atoms: _564  and  _565
REMARK  248  A    between atoms: _564  and  _567
REMARK  249  A    between atoms: _567  and  _568
REMARK  250  A    between atoms: _571  and  _573
REMARK  251  A    between atoms: _573  and  _574
REMARK  252  A    between atoms: _573  and  _576
REMARK  253  A    between atoms: _576  and  _577
REMARK  254  A    between atoms: _580  and  _582
REMARK  255  A    between atoms: _582  and  _583
REMARK  256  A    between atoms: _582  and  _585
REMARK  257  A    between atoms: _585  and  _586
REMARK  258  A    between atoms: _586  and  _587
REMARK                            x       y       z     vdW  Elec       q    Type
REMARK                         _______ _______ _______ _____ _____    ______ ____
ROOT
ATOM      1  O   HOH     1      18.516  -2.140  25.564  0.00  0.00    +0.000 OA
ENDROOT
TORSDOF 0
REMARK  Name = ../refined-set-2016/2ayr/2ayr_pocket.pdb
REMARK  258 active torsions:
REMARK  status: ('A' for Active; 'I' for Inactive)
REMARK    1  A    between atoms: _1  and  _3
REMARK    2  A    between atoms: _3  and  _4
REMARK    3  A    between atoms: _3  and  _6
REMARK    4  A    between atoms: _6  and  _7
REMARK    5  A    between atoms: _10  and  _12
REMARK    6  A    between atoms: _12  and  _13
REMARK    7  A    between atoms: _12  and  _15
REMARK    8  A    between atoms: _15  and  _16
REMARK    9  A    between atoms: _16  and  _17
REMARK   10  A    between atoms: _19  and  _21
REMARK   11  A    between atoms: _21  and  _22
REMARK   12  A    between atoms: _21  and  _24
REMARK   13  A    between atoms: _24  and  _25
REMARK   14  A    between atoms: _25  and  _26
REMARK   15  A    between atoms: _28  and  _30
REMARK   16  A    between atoms: _30  and  _31
REMARK   17  A    between atoms: _33  and  _35
REMARK   18  A    between atoms: _35  and  _36
REMARK   19  A    between atoms: _35  and  _38
REMARK   20  A    between atoms: _38  and  _39
REMARK   21  A    between atoms: _42  and  _44
REMARK   22  A    between atoms: _44  and  _45
REMARK   23  A    between atoms: _44  and  _47
REMARK   24  A    between atoms: _47  and  _48
REMARK   25  A    between atoms: _51  and  _53
REMARK   26  A    between atoms: _53  and  _54
REMARK   27  A    between atoms: _53  and  _56
REMARK   28  A    between atoms: _56  and  _57
REMARK   29  A    between atoms: _60  and  _62
REMARK   30  A    between atoms: _62  and  _63
REMARK   31  A    between atoms: _62  and  _65
REMARK   32  A    between atoms: _65  and  _66
REMARK   33  A    between atoms: _71  and  _73
REMARK   34  A    between atoms: _73  and  _74
REMARK   35  A    between atoms: _73  and  _76
REMARK   36  A    between atoms: _76  and  _77
REMARK   37  A    between atoms: _80  and  _82
REMARK   38  A    between atoms: _82  and  _83
REMARK   39  A    between atoms: _86  and  _88
REMARK   40  A    between atoms: _88  and  _89
REMARK   41  A    between atoms: _88  and  _91
REMARK   42  A    between atoms: _91  and  _92
REMARK   43  A    between atoms: _95  and  _97
REMARK   44  A    between atoms: _97  and  _98
REMARK   45  A    between atoms: _97  and  _100
REMARK   46  A    between atoms: _100  and  _101
REMARK   47  A    between atoms: _101  and  _102
REMARK   48  A    between atoms: _102  and  _103
REMARK   49  A    between atoms: _112  and  _114
REMARK   50  A    between atoms: _114  and  _115
REMARK   51  A    between atoms: _114  and  _117
REMARK   52  A    between atoms: _117  and  _118
REMARK   53  A    between atoms: _118  and  _119
REMARK   54  A    between atoms: _122  and  _124
REMARK   55  A    between atoms: _124  and  _125
REMARK   56  A    between atoms: _124  and  _127
REMARK   57  A    between atoms: _127  and  _128
REMARK   58  A    between atoms: _131  and  _133
REMARK   59  A    between atoms: _133  and  _134
REMARK   60  A    between atoms: _133  and  _136
REMARK   61  A    between atoms: _139  and  _141
REMARK   62  A    between atoms: _141  and  _142
REMARK   63  A    between atoms: _141  and  _144
REMARK   64  A    between atoms: _144  and  _145
REMARK   65  A    between atoms: _145  and  _146
REMARK   66  A    between atoms: _148  and  _150
REMARK   67  A    between atoms: _150  and  _151
REMARK   68  A    between atoms: _150  and  _153
REMARK   69  A    between atoms: _153  and  _154
REMARK   70  A    between atoms: _164  and  _166
REMARK   71  A    between atoms: _166  and  _167
REMARK   72  A    between atoms: _166  and  _169
REMARK   73  A    between atoms: _169  and  _170
REMARK   74  A    between atoms: _173  and  _175
REMARK   75  A    between atoms: _175  and  _176
REMARK   76  A    between atoms: _175  and  _178
REMARK   77  A    between atoms: _178  and  _179
REMARK   78  A    between atoms: _179  and  _180
REMARK   79  A    between atoms: _183  and  _185
REMARK   80  A    between atoms: _185  and  _186
REMARK   81  A    between atoms: _185  and  _188
REMARK   82  A    between atoms: _188  and  _189
REMARK   83  A    between atoms: _192  and  _194
REMARK   84  A    between atoms: _194  and  _195
REMARK   85  A    between atoms: _194  and  _197
REMARK   86  A    between atoms: _197  and  _198
REMARK   87  A    between atoms: _201  and  _203
REMARK   88  A    between atoms: _203  and  _204
REMARK   89  A    between atoms: _203  and  _206
REMARK   90  A    between atoms: _206  and  _207
REMARK   91  A    between atoms: _207  and  _208
REMARK   92  A    between atoms: _210  and  _212
REMARK   93  A    between atoms: _212  and  _213
REMARK   94  A    between atoms: _212  and  _215
REMARK   95  A    between atoms: _215  and  _216
REMARK   96  A    between atoms: _219  and  _221
REMARK   97  A    between atoms: _221  and  _222
REMARK   98  A    between atoms: _224  and  _226
REMARK   99  A    between atoms: _226  and  _227
REMARK  100  A    between atoms: _226  and  _229
REMARK  101  A    between atoms: _229  and  _230
REMARK  102  A    between atoms: _233  and  _235
REMARK  103  A    between atoms: _235  and  _236
REMARK  104  A    between atoms: _235  and  _238
REMARK  105  A    between atoms: _241  and  _243
REMARK  106  A    between atoms: _243  and  _244
REMARK  107  A    between atoms: _243  and  _246
REMARK  108  A    between atoms: _246  and  _247
REMARK  109  A    between atoms: _247  and  _248
REMARK  110  A    between atoms: _248  and  _249
REMARK  111  A    between atoms: _258  and  _260
REMARK  112  A    between atoms: _260  and  _261
REMARK  113  A    between atoms: _260  and  _263
REMARK  114  A    between atoms: _263  and  _264
REMARK  115  A    between atoms: _266  and  _268
REMARK  116  A    between atoms: _268  and  _269
REMARK  117  A    between atoms: _268  and  _271
REMARK  118  A    between atoms: _271  and  _272
REMARK  119  A    between atoms: _275  and  _277
REMARK  120  A    between atoms: _277  and  _278
REMARK  121  A    between atoms: _277  and  _280
REMARK  122  A    between atoms: _280  and  _281
REMARK  123  A    between atoms: _284  and  _286
REMARK  124  A    between atoms: _286  and  _287
REMARK  125  A    between atoms: _286  and  _289
REMARK  126  A    between atoms: _289  and  _290
REMARK  127  A    between atoms: _296  and  _298
REMARK  128  A    between atoms: _298  and  _299
REMARK  129  A    between atoms: _302  and  _304
REMARK  130  A    between atoms: _304  and  _305
REMARK  131  A    between atoms: _304  and  _307
REMARK  132  A    between atoms: _307  and  _308
REMARK  133  A    between atoms: _311  and  _313
REMARK  134  A    between atoms: _313  and  _314
REMARK  135  A    between atoms: _316  and  _318
REMARK  136  A    between atoms: _318  and  _319
REMARK  137  A    between atoms: _318  and  _321
REMARK  138  A    between atoms: _324  and  _326
REMARK  139  A    between atoms: _326  and  _327
REMARK  140  A    between atoms: _326  and  _329
REMARK  141  A    between atoms: _329  and  _330
REMARK  142  A    between atoms: _330  and  _331
REMARK  143  A    between atoms: _334  and  _336
REMARK  144  A    between atoms: _336  and  _337
REMARK  145  A    between atoms: _339  and  _341
REMARK  146  A    between atoms: _341  and  _342
REMARK  147  A    between atoms: _341  and  _344
REMARK  148  A    between atoms: _344  and  _345
REMARK  149  A    between atoms: _345  and  _346
REMARK  150  A    between atoms: _348  and  _350
REMARK  151  A    between atoms: _350  and  _351
REMARK  152  A    between atoms: _350  and  _353
REMARK  153  A    between atoms: _356  and  _358
REMARK  154  A    between atoms: _358  and  _359
REMARK  155  A    between atoms: _358  and  _361
REMARK  156  A    between atoms: _361  and  _362
REMARK  157  A    between atoms: _362  and  _363
REMARK  158  A    between atoms: _366  and  _368
REMARK  159  A    between atoms: _368  and  _369
REMARK  160  A    between atoms: _368  and  _371
REMARK  161  A    between atoms: _371  and  _372
REMARK  162  A    between atoms: _375  and  _377
REMARK  163  A    between atoms: _377  and  _378
REMARK  164  A    between atoms: _377  and  _380
REMARK  165  A    between atoms: _380  and  _381
REMARK  166  A    between atoms: _387  and  _389
REMARK  167  A    between atoms: _389  and  _390
REMARK  168  A    between atoms: _389  and  _392
REMARK  169  A    between atoms: _392  and  _393
REMARK  170  A    between atoms: _396  and  _398
REMARK  171  A    between atoms: _398  and  _399
REMARK  172  A    between atoms: _398  and  _401
REMARK  173  A    between atoms: _401  and  _402
REMARK  174  A    between atoms: _402  and  _403
REMARK  175  A    between atoms: _405  and  _407
REMARK  176  A    between atoms: _407  and  _408
REMARK  177  A    between atoms: _407  and  _410
REMARK  178  A    between atoms: _410  and  _411
REMARK  179  A    between atoms: _413  and  _415
REMARK  180  A    between atoms: _415  and  _416
REMARK  181  A    between atoms: _415  and  _418
REMARK  182  A    between atoms: _418  and  _419
REMARK  183  A    between atoms: _424  and  _426
REMARK  184  A    between atoms: _426  and  _427
REMARK  185  A    between atoms: _426  and  _429
REMARK  186  A    between atoms: _429  and  _430
REMARK  187  A    between atoms: _430  and  _431
REMARK  188  A    between atoms: _431  and  _432
REMARK  189  A    between atoms: _432  and  _433
REMARK  190  A    between atoms: _437  and  _439
REMARK  191  A    between atoms: _439  and  _440
REMARK  192  A    between atoms: _442  and  _444
REMARK  193  A    between atoms: _444  and  _445
REMARK  194  A    between atoms: _444  and  _447
REMARK  195  A    between atoms: _447  and  _448
REMARK  196  A    between atoms: _448  and  _449
REMARK  197  A    between atoms: _451  and  _453
REMARK  198  A    between atoms: _453  and  _454
REMARK  199  A    between atoms: _453  and  _456
REMARK  200  A    between atoms: _456  and  _457
REMARK  201  A    between atoms: _457  and  _458
REMARK  202  A    between atoms: _461  and  _463
REMARK  203  A    between atoms: _463  and  _464
REMARK  204  A    between atoms: _463  and  _466
REMARK  205  A    between atoms: _466  and  _467
REMARK  206  A    between atoms: _472  and  _474
REMARK  207  A    between atoms: _474  and  _475
REMARK  208  A    between atoms: _474  and  _477
REMARK  209  A    between atoms: _477  and  _478
REMARK  210  A    between atoms: _481  and  _483
REMARK  211  A    between atoms: _483  and  _484
REMARK  212  A    between atoms: _483  and  _486
REMARK  213  A    between atoms: _486  and  _487
REMARK  214  A    between atoms: _492  and  _493
REMARK  215  A    between atoms: _495  and  _497
REMARK  216  A    between atoms: _497  and  _498
REMARK  217  A    between atoms: _497  and  _500
REMARK  218  A    between atoms: _500  and  _501
REMARK  219  A    between atoms: _503  and  _505
REMARK  220  A    between atoms: _505  and  _506
REMARK  221  A    between atoms: _505  and  _508
REMARK  222  A    between atoms: _508  and  _509
REMARK  223  A    between atoms: _509  and  _510
REMARK  224  A    between atoms: _512  and  _514
REMARK  225  A    between atoms: _514  and  _515
REMARK  226  A    between atoms: _514  and  _517
REMARK  227  A    between atoms: _517  and  _518
REMARK  228  A    between atoms: _518  and  _519
REMARK  229  A    between atoms: _519  and  _520
REMARK  230  A    between atoms: _520  and  _521
REMARK  231  A    between atoms: _525  and  _527
REMARK  232  A    between atoms: _527  and  _528
REMARK  233  A    between atoms: _527  and  _530
REMARK  234  A    between atoms: _530  and  _531
REMARK  235  A    between atoms: _531  and  _532
REMARK  236  A    between atoms: _532  and  _533
REMARK  237  A    between atoms: _533  and  _534
REMARK  238  A    between atoms: _538  and  _540
REMARK  239  A    between atoms: _540  and  _541
REMARK  240  A    between atoms: _540  and  _543
REMARK  241  A    between atoms: _547  and  _548
REMARK  242  A    between atoms: _553  and  _555
REMARK  243  A    between atoms: _555  and  _556
REMARK  244  A    between atoms: _555  and  _558
REMARK  245  A    between atoms: _558  and  _559
REMARK  246  A    between atoms: _562  and  _564
REMARK  247  A    between atoms: _564  and  _565
REMARK  248  A    between atoms: _564  and  _567
REMARK  249  A    between atoms: _567  and  _568
REMARK  250  A    between atoms: _571  and  _573
REMARK  251  A    between atoms: _573  and  _574
REMARK  252  A    between atoms: _573  and  _576
REMARK  253  A    between atoms: _576  and  _577
REMARK  254  A    between atoms: _580  and  _582
REMARK  255  A    between atoms: _582  and  _583
REMARK  256  A    between atoms: _582  and  _585
REMARK  257  A    between atoms: _585  and  _586
REMARK  258  A    between atoms: _586  and  _587
REMARK                            x       y       z     vdW  Elec       q    Type
REMARK                         _______ _______ _______ _____ _____    ______ ____
ROOT
ATOM      1  O   HOH     1      39.852   1.430  36.381  0.00  0.00    +0.000 OA
ENDROOT
TORSDOF 0
REMARK  Name = ../refined-set-2016/2ayr/2ayr_pocket.pdb
REMARK  258 active torsions:
REMARK  status: ('A' for Active; 'I' for Inactive)
REMARK    1  A    between atoms: _1  and  _3
REMARK    2  A    between atoms: _3  and  _4
REMARK    3  A    between atoms: _3  and  _6
REMARK    4  A    between atoms: _6  and  _7
REMARK    5  A    between atoms: _10  and  _12
REMARK    6  A    between atoms: _12  and  _13
REMARK    7  A    between atoms: _12  and  _15
REMARK    8  A    between atoms: _15  and  _16
REMARK    9  A    between atoms: _16  and  _17
REMARK   10  A    between atoms: _19  and  _21
REMARK   11  A    between atoms: _21  and  _22
REMARK   12  A    between atoms: _21  and  _24
REMARK   13  A    between atoms: _24  and  _25
REMARK   14  A    between atoms: _25  and  _26
REMARK   15  A    between atoms: _28  and  _30
REMARK   16  A    between atoms: _30  and  _31
REMARK   17  A    between atoms: _33  and  _35
REMARK   18  A    between atoms: _35  and  _36
REMARK   19  A    between atoms: _35  and  _38
REMARK   20  A    between atoms: _38  and  _39
REMARK   21  A    between atoms: _42  and  _44
REMARK   22  A    between atoms: _44  and  _45
REMARK   23  A    between atoms: _44  and  _47
REMARK   24  A    between atoms: _47  and  _48
REMARK   25  A    between atoms: _51  and  _53
REMARK   26  A    between atoms: _53  and  _54
REMARK   27  A    between atoms: _53  and  _56
REMARK   28  A    between atoms: _56  and  _57
REMARK   29  A    between atoms: _60  and  _62
REMARK   30  A    between atoms: _62  and  _63
REMARK   31  A    between atoms: _62  and  _65
REMARK   32  A    between atoms: _65  and  _66
REMARK   33  A    between atoms: _71  and  _73
REMARK   34  A    between atoms: _73  and  _74
REMARK   35  A    between atoms: _73  and  _76
REMARK   36  A    between atoms: _76  and  _77
REMARK   37  A    between atoms: _80  and  _82
REMARK   38  A    between atoms: _82  and  _83
REMARK   39  A    between atoms: _86  and  _88
REMARK   40  A    between atoms: _88  and  _89
REMARK   41  A    between atoms: _88  and  _91
REMARK   42  A    between atoms: _91  and  _92
REMARK   43  A    between atoms: _95  and  _97
REMARK   44  A    between atoms: _97  and  _98
REMARK   45  A    between atoms: _97  and  _100
REMARK   46  A    between atoms: _100  and  _101
REMARK   47  A    between atoms: _101  and  _102
REMARK   48  A    between atoms: _102  and  _103
REMARK   49  A    between atoms: _112  and  _114
REMARK   50  A    between atoms: _114  and  _115
REMARK   51  A    between atoms: _114  and  _117
REMARK   52  A    between atoms: _117  and  _118
REMARK   53  A    between atoms: _118  and  _119
REMARK   54  A    between atoms: _122  and  _124
REMARK   55  A    between atoms: _124  and  _125
REMARK   56  A    between atoms: _124  and  _127
REMARK   57  A    between atoms: _127  and  _128
REMARK   58  A    between atoms: _131  and  _133
REMARK   59  A    between atoms: _133  and  _134
REMARK   60  A    between atoms: _133  and  _136
REMARK   61  A    between atoms: _139  and  _141
REMARK   62  A    between atoms: _141  and  _142
REMARK   63  A    between atoms: _141  and  _144
REMARK   64  A    between atoms: _144  and  _145
REMARK   65  A    between atoms: _145  and  _146
REMARK   66  A    between atoms: _148  and  _150
REMARK   67  A    between atoms: _150  and  _151
REMARK   68  A    between atoms: _150  and  _153
REMARK   69  A    between atoms: _153  and  _154
REMARK   70  A    between atoms: _164  and  _166
REMARK   71  A    between atoms: _166  and  _167
REMARK   72  A    between atoms: _166  and  _169
REMARK   73  A    between atoms: _169  and  _170
REMARK   74  A    between atoms: _173  and  _175
REMARK   75  A    between atoms: _175  and  _176
REMARK   76  A    between atoms: _175  and  _178
REMARK   77  A    between atoms: _178  and  _179
REMARK   78  A    between atoms: _179  and  _180
REMARK   79  A    between atoms: _183  and  _185
REMARK   80  A    between atoms: _185  and  _186
REMARK   81  A    between atoms: _185  and  _188
REMARK   82  A    between atoms: _188  and  _189
REMARK   83  A    between atoms: _192  and  _194
REMARK   84  A    between atoms: _194  and  _195
REMARK   85  A    between atoms: _194  and  _197
REMARK   86  A    between atoms: _197  and  _198
REMARK   87  A    between atoms: _201  and  _203
REMARK   88  A    between atoms: _203  and  _204
REMARK   89  A    between atoms: _203  and  _206
REMARK   90  A    between atoms: _206  and  _207
REMARK   91  A    between atoms: _207  and  _208
REMARK   92  A    between atoms: _210  and  _212
REMARK   93  A    between atoms: _212  and  _213
REMARK   94  A    between atoms: _212  and  _215
REMARK   95  A    between atoms: _215  and  _216
REMARK   96  A    between atoms: _219  and  _221
REMARK   97  A    between atoms: _221  and  _222
REMARK   98  A    between atoms: _224  and  _226
REMARK   99  A    between atoms: _226  and  _227
REMARK  100  A    between atoms: _226  and  _229
REMARK  101  A    between atoms: _229  and  _230
REMARK  102  A    between atoms: _233  and  _235
REMARK  103  A    between atoms: _235  and  _236
REMARK  104  A    between atoms: _235  and  _238
REMARK  105  A    between atoms: _241  and  _243
REMARK  106  A    between atoms: _243  and  _244
REMARK  107  A    between atoms: _243  and  _246
REMARK  108  A    between atoms: _246  and  _247
REMARK  109  A    between atoms: _247  and  _248
REMARK  110  A    between atoms: _248  and  _249
REMARK  111  A    between atoms: _258  and  _260
REMARK  112  A    between atoms: _260  and  _261
REMARK  113  A    between atoms: _260  and  _263
REMARK  114  A    between atoms: _263  and  _264
REMARK  115  A    between atoms: _266  and  _268
REMARK  116  A    between atoms: _268  and  _269
REMARK  117  A    between atoms: _268  and  _271
REMARK  118  A    between atoms: _271  and  _272
REMARK  119  A    between atoms: _275  and  _277
REMARK  120  A    between atoms: _277  and  _278
REMARK  121  A    between atoms: _277  and  _280
REMARK  122  A    between atoms: _280  and  _281
REMARK  123  A    between atoms: _284  and  _286
REMARK  124  A    between atoms: _286  and  _287
REMARK  125  A    between atoms: _286  and  _289
REMARK  126  A    between atoms: _289  and  _290
REMARK  127  A    between atoms: _296  and  _298
REMARK  128  A    between atoms: _298  and  _299
REMARK  129  A    between atoms: _302  and  _304
REMARK  130  A    between atoms: _304  and  _305
REMARK  131  A    between atoms: _304  and  _307
REMARK  132  A    between atoms: _307  and  _308
REMARK  133  A    between atoms: _311  and  _313
REMARK  134  A    between atoms: _313  and  _314
REMARK  135  A    between atoms: _316  and  _318
REMARK  136  A    between atoms: _318  and  _319
REMARK  137  A    between atoms: _318  and  _321
REMARK  138  A    between atoms: _324  and  _326
REMARK  139  A    between atoms: _326  and  _327
REMARK  140  A    between atoms: _326  and  _329
REMARK  141  A    between atoms: _329  and  _330
REMARK  142  A    between atoms: _330  and  _331
REMARK  143  A    between atoms: _334  and  _336
REMARK  144  A    between atoms: _336  and  _337
REMARK  145  A    between atoms: _339  and  _341
REMARK  146  A    between atoms: _341  and  _342
REMARK  147  A    between atoms: _341  and  _344
REMARK  148  A    between atoms: _344  and  _345
REMARK  149  A    between atoms: _345  and  _346
REMARK  150  A    between atoms: _348  and  _350
REMARK  151  A    between atoms: _350  and  _351
REMARK  152  A    between atoms: _350  and  _353
REMARK  153  A    between atoms: _356  and  _358
REMARK  154  A    between atoms: _358  and  _359
REMARK  155  A    between atoms: _358  and  _361
REMARK  156  A    between atoms: _361  and  _362
REMARK  157  A    between atoms: _362  and  _363
REMARK  158  A    between atoms: _366  and  _368
REMARK  159  A    between atoms: _368  and  _369
REMARK  160  A    between atoms: _368  and  _371
REMARK  161  A    between atoms: _371  and  _372
REMARK  162  A    between atoms: _375  and  _377
REMARK  163  A    between atoms: _377  and  _378
REMARK  164  A    between atoms: _377  and  _380
REMARK  165  A    between atoms: _380  and  _381
REMARK  166  A    between atoms: _387  and  _389
REMARK  167  A    between atoms: _389  and  _390
REMARK  168  A    between atoms: _389  and  _392
REMARK  169  A    between atoms: _392  and  _393
REMARK  170  A    between atoms: _396  and  _398
REMARK  171  A    between atoms: _398  and  _399
REMARK  172  A    between atoms: _398  and  _401
REMARK  173  A    between atoms: _401  and  _402
REMARK  174  A    between atoms: _402  and  _403
REMARK  175  A    between atoms: _405  and  _407
REMARK  176  A    between atoms: _407  and  _408
REMARK  177  A    between atoms: _407  and  _410
REMARK  178  A    between atoms: _410  and  _411
REMARK  179  A    between atoms: _413  and  _415
REMARK  180  A    between atoms: _415  and  _416
REMARK  181  A    between atoms: _415  and  _418
REMARK  182  A    between atoms: _418  and  _419
REMARK  183  A    between atoms: _424  and  _426
REMARK  184  A    between atoms: _426  and  _427
REMARK  185  A    between atoms: _426  and  _429
REMARK  186  A    between atoms: _429  and  _430
REMARK  187  A    between atoms: _430  and  _431
REMARK  188  A    between atoms: _431  and  _432
REMARK  189  A    between atoms: _432  and  _433
REMARK  190  A    between atoms: _437  and  _439
REMARK  191  A    between atoms: _439  and  _440
REMARK  192  A    between atoms: _442  and  _444
REMARK  193  A    between atoms: _444  and  _445
REMARK  194  A    between atoms: _444  and  _447
REMARK  195  A    between atoms: _447  and  _448
REMARK  196  A    between atoms: _448  and  _449
REMARK  197  A    between atoms: _451  and  _453
REMARK  198  A    between atoms: _453  and  _454
REMARK  199  A    between atoms: _453  and  _456
REMARK  200  A    between atoms: _456  and  _457
REMARK  201  A    between atoms: _457  and  _458
REMARK  202  A    between atoms: _461  and  _463
REMARK  203  A    between atoms: _463  and  _464
REMARK  204  A    between atoms: _463  and  _466
REMARK  205  A    between atoms: _466  and  _467
REMARK  206  A    between atoms: _472  and  _474
REMARK  207  A    between atoms: _474  and  _475
REMARK  208  A    between atoms: _474  and  _477
REMARK  209  A    between atoms: _477  and  _478
REMARK  210  A    between atoms: _481  and  _483
REMARK  211  A    between atoms: _483  and  _484
REMARK  212  A    between atoms: _483  and  _486
REMARK  213  A    between atoms: _486  and  _487
REMARK  214  A    between atoms: _492  and  _493
REMARK  215  A    between atoms: _495  and  _497
REMARK  216  A    between atoms: _497  and  _498
REMARK  217  A    between atoms: _497  and  _500
REMARK  218  A    between atoms: _500  and  _501
REMARK  219  A    between atoms: _503  and  _505
REMARK  220  A    between atoms: _505  and  _506
REMARK  221  A    between atoms: _505  and  _508
REMARK  222  A    between atoms: _508  and  _509
REMARK  223  A    between atoms: _509  and  _510
REMARK  224  A    between atoms: _512  and  _514
REMARK  225  A    between atoms: _514  and  _515
REMARK  226  A    between atoms: _514  and  _517
REMARK  227  A    between atoms: _517  and  _518
REMARK  228  A    between atoms: _518  and  _519
REMARK  229  A    between atoms: _519  and  _520
REMARK  230  A    between atoms: _520  and  _521
REMARK  231  A    between atoms: _525  and  _527
REMARK  232  A    between atoms: _527  and  _528
REMARK  233  A    between atoms: _527  and  _530
REMARK  234  A    between atoms: _530  and  _531
REMARK  235  A    between atoms: _531  and  _532
REMARK  236  A    between atoms: _532  and  _533
REMARK  237  A    between atoms: _533  and  _534
REMARK  238  A    between atoms: _538  and  _540
REMARK  239  A    between atoms: _540  and  _541
REMARK  240  A    between atoms: _540  and  _543
REMARK  241  A    between atoms: _547  and  _548
REMARK  242  A    between atoms: _553  and  _555
REMARK  243  A    between atoms: _555  and  _556
REMARK  244  A    between atoms: _555  and  _558
REMARK  245  A    between atoms: _558  and  _559
REMARK  246  A    between atoms: _562  and  _564
REMARK  247  A    between atoms: _564  and  _565
REMARK  248  A    between atoms: _564  and  _567
REMARK  249  A    between atoms: _567  and  _568
REMARK  250  A    between atoms: _571  and  _573
REMARK  251  A    between atoms: _573  and  _574
REMARK  252  A    between atoms: _573  and  _576
REMARK  253  A    between atoms: _576  and  _577
REMARK  254  A    between atoms: _580  and  _582
REMARK  255  A    between atoms: _582  and  _583
REMARK  256  A    between atoms: _582  and  _585
REMARK  257  A    between atoms: _585  and  _586
REMARK  258  A    between atoms: _586  and  _587
REMARK                            x       y       z     vdW  Elec       q    Type
REMARK                         _______ _______ _______ _____ _____    ______ ____
ROOT
ATOM      1  O   HOH     1      20.398  -1.963  23.363  0.00  0.00    +0.000 OA
ENDROOT
TORSDOF 0
REMARK  Name = ../refined-set-2016/2ayr/2ayr_pocket.pdb
REMARK  258 active torsions:
REMARK  status: ('A' for Active; 'I' for Inactive)
REMARK    1  A    between atoms: _1  and  _3
REMARK    2  A    between atoms: _3  and  _4
REMARK    3  A    between atoms: _3  and  _6
REMARK    4  A    between atoms: _6  and  _7
REMARK    5  A    between atoms: _10  and  _12
REMARK    6  A    between atoms: _12  and  _13
REMARK    7  A    between atoms: _12  and  _15
REMARK    8  A    between atoms: _15  and  _16
REMARK    9  A    between atoms: _16  and  _17
REMARK   10  A    between atoms: _19  and  _21
REMARK   11  A    between atoms: _21  and  _22
REMARK   12  A    between atoms: _21  and  _24
REMARK   13  A    between atoms: _24  and  _25
REMARK   14  A    between atoms: _25  and  _26
REMARK   15  A    between atoms: _28  and  _30
REMARK   16  A    between atoms: _30  and  _31
REMARK   17  A    between atoms: _33  and  _35
REMARK   18  A    between atoms: _35  and  _36
REMARK   19  A    between atoms: _35  and  _38
REMARK   20  A    between atoms: _38  and  _39
REMARK   21  A    between atoms: _42  and  _44
REMARK   22  A    between atoms: _44  and  _45
REMARK   23  A    between atoms: _44  and  _47
REMARK   24  A    between atoms: _47  and  _48
REMARK   25  A    between atoms: _51  and  _53
REMARK   26  A    between atoms: _53  and  _54
REMARK   27  A    between atoms: _53  and  _56
REMARK   28  A    between atoms: _56  and  _57
REMARK   29  A    between atoms: _60  and  _62
REMARK   30  A    between atoms: _62  and  _63
REMARK   31  A    between atoms: _62  and  _65
REMARK   32  A    between atoms: _65  and  _66
REMARK   33  A    between atoms: _71  and  _73
REMARK   34  A    between atoms: _73  and  _74
REMARK   35  A    between atoms: _73  and  _76
REMARK   36  A    between atoms: _76  and  _77
REMARK   37  A    between atoms: _80  and  _82
REMARK   38  A    between atoms: _82  and  _83
REMARK   39  A    between atoms: _86  and  _88
REMARK   40  A    between atoms: _88  and  _89
REMARK   41  A    between atoms: _88  and  _91
REMARK   42  A    between atoms: _91  and  _92
REMARK   43  A    between atoms: _95  and  _97
REMARK   44  A    between atoms: _97  and  _98
REMARK   45  A    between atoms: _97  and  _100
REMARK   46  A    between atoms: _100  and  _101
REMARK   47  A    between atoms: _101  and  _102
REMARK   48  A    between atoms: _102  and  _103
REMARK   49  A    between atoms: _112  and  _114
REMARK   50  A    between atoms: _114  and  _115
REMARK   51  A    between atoms: _114  and  _117
REMARK   52  A    between atoms: _117  and  _118
REMARK   53  A    between atoms: _118  and  _119
REMARK   54  A    between atoms: _122  and  _124
REMARK   55  A    between atoms: _124  and  _125
REMARK   56  A    between atoms: _124  and  _127
REMARK   57  A    between atoms: _127  and  _128
REMARK   58  A    between atoms: _131  and  _133
REMARK   59  A    between atoms: _133  and  _134
REMARK   60  A    between atoms: _133  and  _136
REMARK   61  A    between atoms: _139  and  _141
REMARK   62  A    between atoms: _141  and  _142
REMARK   63  A    between atoms: _141  and  _144
REMARK   64  A    between atoms: _144  and  _145
REMARK   65  A    between atoms: _145  and  _146
REMARK   66  A    between atoms: _148  and  _150
REMARK   67  A    between atoms: _150  and  _151
REMARK   68  A    between atoms: _150  and  _153
REMARK   69  A    between atoms: _153  and  _154
REMARK   70  A    between atoms: _164  and  _166
REMARK   71  A    between atoms: _166  and  _167
REMARK   72  A    between atoms: _166  and  _169
REMARK   73  A    between atoms: _169  and  _170
REMARK   74  A    between atoms: _173  and  _175
REMARK   75  A    between atoms: _175  and  _176
REMARK   76  A    between atoms: _175  and  _178
REMARK   77  A    between atoms: _178  and  _179
REMARK   78  A    between atoms: _179  and  _180
REMARK   79  A    between atoms: _183  and  _185
REMARK   80  A    between atoms: _185  and  _186
REMARK   81  A    between atoms: _185  and  _188
REMARK   82  A    between atoms: _188  and  _189
REMARK   83  A    between atoms: _192  and  _194
REMARK   84  A    between atoms: _194  and  _195
REMARK   85  A    between atoms: _194  and  _197
REMARK   86  A    between atoms: _197  and  _198
REMARK   87  A    between atoms: _201  and  _203
REMARK   88  A    between atoms: _203  and  _204
REMARK   89  A    between atoms: _203  and  _206
REMARK   90  A    between atoms: _206  and  _207
REMARK   91  A    between atoms: _207  and  _208
REMARK   92  A    between atoms: _210  and  _212
REMARK   93  A    between atoms: _212  and  _213
REMARK   94  A    between atoms: _212  and  _215
REMARK   95  A    between atoms: _215  and  _216
REMARK   96  A    between atoms: _219  and  _221
REMARK   97  A    between atoms: _221  and  _222
REMARK   98  A    between atoms: _224  and  _226
REMARK   99  A    between atoms: _226  and  _227
REMARK  100  A    between atoms: _226  and  _229
REMARK  101  A    between atoms: _229  and  _230
REMARK  102  A    between atoms: _233  and  _235
REMARK  103  A    between atoms: _235  and  _236
REMARK  104  A    between atoms: _235  and  _238
REMARK  105  A    between atoms: _241  and  _243
REMARK  106  A    between atoms: _243  and  _244
REMARK  107  A    between atoms: _243  and  _246
REMARK  108  A    between atoms: _246  and  _247
REMARK  109  A    between atoms: _247  and  _248
REMARK  110  A    between atoms: _248  and  _249
REMARK  111  A    between atoms: _258  and  _260
REMARK  112  A    between atoms: _260  and  _261
REMARK  113  A    between atoms: _260  and  _263
REMARK  114  A    between atoms: _263  and  _264
REMARK  115  A    between atoms: _266  and  _268
REMARK  116  A    between atoms: _268  and  _269
REMARK  117  A    between atoms: _268  and  _271
REMARK  118  A    between atoms: _271  and  _272
REMARK  119  A    between atoms: _275  and  _277
REMARK  120  A    between atoms: _277  and  _278
REMARK  121  A    between atoms: _277  and  _280
REMARK  122  A    between atoms: _280  and  _281
REMARK  123  A    between atoms: _284  and  _286
REMARK  124  A    between atoms: _286  and  _287
REMARK  125  A    between atoms: _286  and  _289
REMARK  126  A    between atoms: _289  and  _290
REMARK  127  A    between atoms: _296  and  _298
REMARK  128  A    between atoms: _298  and  _299
REMARK  129  A    between atoms: _302  and  _304
REMARK  130  A    between atoms: _304  and  _305
REMARK  131  A    between atoms: _304  and  _307
REMARK  132  A    between atoms: _307  and  _308
REMARK  133  A    between atoms: _311  and  _313
REMARK  134  A    between atoms: _313  and  _314
REMARK  135  A    between atoms: _316  and  _318
REMARK  136  A    between atoms: _318  and  _319
REMARK  137  A    between atoms: _318  and  _321
REMARK  138  A    between atoms: _324  and  _326
REMARK  139  A    between atoms: _326  and  _327
REMARK  140  A    between atoms: _326  and  _329
REMARK  141  A    between atoms: _329  and  _330
REMARK  142  A    between atoms: _330  and  _331
REMARK  143  A    between atoms: _334  and  _336
REMARK  144  A    between atoms: _336  and  _337
REMARK  145  A    between atoms: _339  and  _341
REMARK  146  A    between atoms: _341  and  _342
REMARK  147  A    between atoms: _341  and  _344
REMARK  148  A    between atoms: _344  and  _345
REMARK  149  A    between atoms: _345  and  _346
REMARK  150  A    between atoms: _348  and  _350
REMARK  151  A    between atoms: _350  and  _351
REMARK  152  A    between atoms: _350  and  _353
REMARK  153  A    between atoms: _356  and  _358
REMARK  154  A    between atoms: _358  and  _359
REMARK  155  A    between atoms: _358  and  _361
REMARK  156  A    between atoms: _361  and  _362
REMARK  157  A    between atoms: _362  and  _363
REMARK  158  A    between atoms: _366  and  _368
REMARK  159  A    between atoms: _368  and  _369
REMARK  160  A    between atoms: _368  and  _371
REMARK  161  A    between atoms: _371  and  _372
REMARK  162  A    between atoms: _375  and  _377
REMARK  163  A    between atoms: _377  and  _378
REMARK  164  A    between atoms: _377  and  _380
REMARK  165  A    between atoms: _380  and  _381
REMARK  166  A    between atoms: _387  and  _389
REMARK  167  A    between atoms: _389  and  _390
REMARK  168  A    between atoms: _389  and  _392
REMARK  169  A    between atoms: _392  and  _393
REMARK  170  A    between atoms: _396  and  _398
REMARK  171  A    between atoms: _398  and  _399
REMARK  172  A    between atoms: _398  and  _401
REMARK  173  A    between atoms: _401  and  _402
REMARK  174  A    between atoms: _402  and  _403
REMARK  175  A    between atoms: _405  and  _407
REMARK  176  A    between atoms: _407  and  _408
REMARK  177  A    between atoms: _407  and  _410
REMARK  178  A    between atoms: _410  and  _411
REMARK  179  A    between atoms: _413  and  _415
REMARK  180  A    between atoms: _415  and  _416
REMARK  181  A    between atoms: _415  and  _418
REMARK  182  A    between atoms: _418  and  _419
REMARK  183  A    between atoms: _424  and  _426
REMARK  184  A    between atoms: _426  and  _427
REMARK  185  A    between atoms: _426  and  _429
REMARK  186  A    between atoms: _429  and  _430
REMARK  187  A    between atoms: _430  and  _431
REMARK  188  A    between atoms: _431  and  _432
REMARK  189  A    between atoms: _432  and  _433
REMARK  190  A    between atoms: _437  and  _439
REMARK  191  A    between atoms: _439  and  _440
REMARK  192  A    between atoms: _442  and  _444
REMARK  193  A    between atoms: _444  and  _445
REMARK  194  A    between atoms: _444  and  _447
REMARK  195  A    between atoms: _447  and  _448
REMARK  196  A    between atoms: _448  and  _449
REMARK  197  A    between atoms: _451  and  _453
REMARK  198  A    between atoms: _453  and  _454
REMARK  199  A    between atoms: _453  and  _456
REMARK  200  A    between atoms: _456  and  _457
REMARK  201  A    between atoms: _457  and  _458
REMARK  202  A    between atoms: _461  and  _463
REMARK  203  A    between atoms: _463  and  _464
REMARK  204  A    between atoms: _463  and  _466
REMARK  205  A    between atoms: _466  and  _467
REMARK  206  A    between atoms: _472  and  _474
REMARK  207  A    between atoms: _474  and  _475
REMARK  208  A    between atoms: _474  and  _477
REMARK  209  A    between atoms: _477  and  _478
REMARK  210  A    between atoms: _481  and  _483
REMARK  211  A    between atoms: _483  and  _484
REMARK  212  A    between atoms: _483  and  _486
REMARK  213  A    between atoms: _486  and  _487
REMARK  214  A    between atoms: _492  and  _493
REMARK  215  A    between atoms: _495  and  _497
REMARK  216  A    between atoms: _497  and  _498
REMARK  217  A    between atoms: _497  and  _500
REMARK  218  A    between atoms: _500  and  _501
REMARK  219  A    between atoms: _503  and  _505
REMARK  220  A    between atoms: _505  and  _506
REMARK  221  A    between atoms: _505  and  _508
REMARK  222  A    between atoms: _508  and  _509
REMARK  223  A    between atoms: _509  and  _510
REMARK  224  A    between atoms: _512  and  _514
REMARK  225  A    between atoms: _514  and  _515
REMARK  226  A    between atoms: _514  and  _517
REMARK  227  A    between atoms: _517  and  _518
REMARK  228  A    between atoms: _518  and  _519
REMARK  229  A    between atoms: _519  and  _520
REMARK  230  A    between atoms: _520  and  _521
REMARK  231  A    between atoms: _525  and  _527
REMARK  232  A    between atoms: _527  and  _528
REMARK  233  A    between atoms: _527  and  _530
REMARK  234  A    between atoms: _530  and  _531
REMARK  235  A    between atoms: _531  and  _532
REMARK  236  A    between atoms: _532  and  _533
REMARK  237  A    between atoms: _533  and  _534
REMARK  238  A    between atoms: _538  and  _540
REMARK  239  A    between atoms: _540  and  _541
REMARK  240  A    between atoms: _540  and  _543
REMARK  241  A    between atoms: _547  and  _548
REMARK  242  A    between atoms: _553  and  _555
REMARK  243  A    between atoms: _555  and  _556
REMARK  244  A    between atoms: _555  and  _558
REMARK  245  A    between atoms: _558  and  _559
REMARK  246  A    between atoms: _562  and  _564
REMARK  247  A    between atoms: _564  and  _565
REMARK  248  A    between atoms: _564  and  _567
REMARK  249  A    between atoms: _567  and  _568
REMARK  250  A    between atoms: _571  and  _573
REMARK  251  A    between atoms: _573  and  _574
REMARK  252  A    between atoms: _573  and  _576
REMARK  253  A    between atoms: _576  and  _577
REMARK  254  A    between atoms: _580  and  _582
REMARK  255  A    between atoms: _582  and  _583
REMARK  256  A    between atoms: _582  and  _585
REMARK  257  A    between atoms: _585  and  _586
REMARK  258  A    between atoms: _586  and  _587
REMARK                            x       y       z     vdW  Elec       q    Type
REMARK                         _______ _______ _______ _____ _____    ______ ____
ROOT
ATOM      1  O   HOH     1      41.397  -0.419  29.079  0.00  0.00    +0.000 OA
ENDROOT
TORSDOF 0
REMARK  Name = ../refined-set-2016/2ayr/2ayr_pocket.pdb
REMARK  258 active torsions:
REMARK  status: ('A' for Active; 'I' for Inactive)
REMARK    1  A    between atoms: _1  and  _3
REMARK    2  A    between atoms: _3  and  _4
REMARK    3  A    between atoms: _3  and  _6
REMARK    4  A    between atoms: _6  and  _7
REMARK    5  A    between atoms: _10  and  _12
REMARK    6  A    between atoms: _12  and  _13
REMARK    7  A    between atoms: _12  and  _15
REMARK    8  A    between atoms: _15  and  _16
REMARK    9  A    between atoms: _16  and  _17
REMARK   10  A    between atoms: _19  and  _21
REMARK   11  A    between atoms: _21  and  _22
REMARK   12  A    between atoms: _21  and  _24
REMARK   13  A    between atoms: _24  and  _25
REMARK   14  A    between atoms: _25  and  _26
REMARK   15  A    between atoms: _28  and  _30
REMARK   16  A    between atoms: _30  and  _31
REMARK   17  A    between atoms: _33  and  _35
REMARK   18  A    between atoms: _35  and  _36
REMARK   19  A    between atoms: _35  and  _38
REMARK   20  A    between atoms: _38  and  _39
REMARK   21  A    between atoms: _42  and  _44
REMARK   22  A    between atoms: _44  and  _45
REMARK   23  A    between atoms: _44  and  _47
REMARK   24  A    between atoms: _47  and  _48
REMARK   25  A    between atoms: _51  and  _53
REMARK   26  A    between atoms: _53  and  _54
REMARK   27  A    between atoms: _53  and  _56
REMARK   28  A    between atoms: _56  and  _57
REMARK   29  A    between atoms: _60  and  _62
REMARK   30  A    between atoms: _62  and  _63
REMARK   31  A    between atoms: _62  and  _65
REMARK   32  A    between atoms: _65  and  _66
REMARK   33  A    between atoms: _71  and  _73
REMARK   34  A    between atoms: _73  and  _74
REMARK   35  A    between atoms: _73  and  _76
REMARK   36  A    between atoms: _76  and  _77
REMARK   37  A    between atoms: _80  and  _82
REMARK   38  A    between atoms: _82  and  _83
REMARK   39  A    between atoms: _86  and  _88
REMARK   40  A    between atoms: _88  and  _89
REMARK   41  A    between atoms: _88  and  _91
REMARK   42  A    between atoms: _91  and  _92
REMARK   43  A    between atoms: _95  and  _97
REMARK   44  A    between atoms: _97  and  _98
REMARK   45  A    between atoms: _97  and  _100
REMARK   46  A    between atoms: _100  and  _101
REMARK   47  A    between atoms: _101  and  _102
REMARK   48  A    between atoms: _102  and  _103
REMARK   49  A    between atoms: _112  and  _114
REMARK   50  A    between atoms: _114  and  _115
REMARK   51  A    between atoms: _114  and  _117
REMARK   52  A    between atoms: _117  and  _118
REMARK   53  A    between atoms: _118  and  _119
REMARK   54  A    between atoms: _122  and  _124
REMARK   55  A    between atoms: _124  and  _125
REMARK   56  A    between atoms: _124  and  _127
REMARK   57  A    between atoms: _127  and  _128
REMARK   58  A    between atoms: _131  and  _133
REMARK   59  A    between atoms: _133  and  _134
REMARK   60  A    between atoms: _133  and  _136
REMARK   61  A    between atoms: _139  and  _141
REMARK   62  A    between atoms: _141  and  _142
REMARK   63  A    between atoms: _141  and  _144
REMARK   64  A    between atoms: _144  and  _145
REMARK   65  A    between atoms: _145  and  _146
REMARK   66  A    between atoms: _148  and  _150
REMARK   67  A    between atoms: _150  and  _151
REMARK   68  A    between atoms: _150  and  _153
REMARK   69  A    between atoms: _153  and  _154
REMARK   70  A    between atoms: _164  and  _166
REMARK   71  A    between atoms: _166  and  _167
REMARK   72  A    between atoms: _166  and  _169
REMARK   73  A    between atoms: _169  and  _170
REMARK   74  A    between atoms: _173  and  _175
REMARK   75  A    between atoms: _175  and  _176
REMARK   76  A    between atoms: _175  and  _178
REMARK   77  A    between atoms: _178  and  _179
REMARK   78  A    between atoms: _179  and  _180
REMARK   79  A    between atoms: _183  and  _185
REMARK   80  A    between atoms: _185  and  _186
REMARK   81  A    between atoms: _185  and  _188
REMARK   82  A    between atoms: _188  and  _189
REMARK   83  A    between atoms: _192  and  _194
REMARK   84  A    between atoms: _194  and  _195
REMARK   85  A    between atoms: _194  and  _197
REMARK   86  A    between atoms: _197  and  _198
REMARK   87  A    between atoms: _201  and  _203
REMARK   88  A    between atoms: _203  and  _204
REMARK   89  A    between atoms: _203  and  _206
REMARK   90  A    between atoms: _206  and  _207
REMARK   91  A    between atoms: _207  and  _208
REMARK   92  A    between atoms: _210  and  _212
REMARK   93  A    between atoms: _212  and  _213
REMARK   94  A    between atoms: _212  and  _215
REMARK   95  A    between atoms: _215  and  _216
REMARK   96  A    between atoms: _219  and  _221
REMARK   97  A    between atoms: _221  and  _222
REMARK   98  A    between atoms: _224  and  _226
REMARK   99  A    between atoms: _226  and  _227
REMARK  100  A    between atoms: _226  and  _229
REMARK  101  A    between atoms: _229  and  _230
REMARK  102  A    between atoms: _233  and  _235
REMARK  103  A    between atoms: _235  and  _236
REMARK  104  A    between atoms: _235  and  _238
REMARK  105  A    between atoms: _241  and  _243
REMARK  106  A    between atoms: _243  and  _244
REMARK  107  A    between atoms: _243  and  _246
REMARK  108  A    between atoms: _246  and  _247
REMARK  109  A    between atoms: _247  and  _248
REMARK  110  A    between atoms: _248  and  _249
REMARK  111  A    between atoms: _258  and  _260
REMARK  112  A    between atoms: _260  and  _261
REMARK  113  A    between atoms: _260  and  _263
REMARK  114  A    between atoms: _263  and  _264
REMARK  115  A    between atoms: _266  and  _268
REMARK  116  A    between atoms: _268  and  _269
REMARK  117  A    between atoms: _268  and  _271
REMARK  118  A    between atoms: _271  and  _272
REMARK  119  A    between atoms: _275  and  _277
REMARK  120  A    between atoms: _277  and  _278
REMARK  121  A    between atoms: _277  and  _280
REMARK  122  A    between atoms: _280  and  _281
REMARK  123  A    between atoms: _284  and  _286
REMARK  124  A    between atoms: _286  and  _287
REMARK  125  A    between atoms: _286  and  _289
REMARK  126  A    between atoms: _289  and  _290
REMARK  127  A    between atoms: _296  and  _298
REMARK  128  A    between atoms: _298  and  _299
REMARK  129  A    between atoms: _302  and  _304
REMARK  130  A    between atoms: _304  and  _305
REMARK  131  A    between atoms: _304  and  _307
REMARK  132  A    between atoms: _307  and  _308
REMARK  133  A    between atoms: _311  and  _313
REMARK  134  A    between atoms: _313  and  _314
REMARK  135  A    between atoms: _316  and  _318
REMARK  136  A    between atoms: _318  and  _319
REMARK  137  A    between atoms: _318  and  _321
REMARK  138  A    between atoms: _324  and  _326
REMARK  139  A    between atoms: _326  and  _327
REMARK  140  A    between atoms: _326  and  _329
REMARK  141  A    between atoms: _329  and  _330
REMARK  142  A    between atoms: _330  and  _331
REMARK  143  A    between atoms: _334  and  _336
REMARK  144  A    between atoms: _336  and  _337
REMARK  145  A    between atoms: _339  and  _341
REMARK  146  A    between atoms: _341  and  _342
REMARK  147  A    between atoms: _341  and  _344
REMARK  148  A    between atoms: _344  and  _345
REMARK  149  A    between atoms: _345  and  _346
REMARK  150  A    between atoms: _348  and  _350
REMARK  151  A    between atoms: _350  and  _351
REMARK  152  A    between atoms: _350  and  _353
REMARK  153  A    between atoms: _356  and  _358
REMARK  154  A    between atoms: _358  and  _359
REMARK  155  A    between atoms: _358  and  _361
REMARK  156  A    between atoms: _361  and  _362
REMARK  157  A    between atoms: _362  and  _363
REMARK  158  A    between atoms: _366  and  _368
REMARK  159  A    between atoms: _368  and  _369
REMARK  160  A    between atoms: _368  and  _371
REMARK  161  A    between atoms: _371  and  _372
REMARK  162  A    between atoms: _375  and  _377
REMARK  163  A    between atoms: _377  and  _378
REMARK  164  A    between atoms: _377  and  _380
REMARK  165  A    between atoms: _380  and  _381
REMARK  166  A    between atoms: _387  and  _389
REMARK  167  A    between atoms: _389  and  _390
REMARK  168  A    between atoms: _389  and  _392
REMARK  169  A    between atoms: _392  and  _393
REMARK  170  A    between atoms: _396  and  _398
REMARK  171  A    between atoms: _398  and  _399
REMARK  172  A    between atoms: _398  and  _401
REMARK  173  A    between atoms: _401  and  _402
REMARK  174  A    between atoms: _402  and  _403
REMARK  175  A    between atoms: _405  and  _407
REMARK  176  A    between atoms: _407  and  _408
REMARK  177  A    between atoms: _407  and  _410
REMARK  178  A    between atoms: _410  and  _411
REMARK  179  A    between atoms: _413  and  _415
REMARK  180  A    between atoms: _415  and  _416
REMARK  181  A    between atoms: _415  and  _418
REMARK  182  A    between atoms: _418  and  _419
REMARK  183  A    between atoms: _424  and  _426
REMARK  184  A    between atoms: _426  and  _427
REMARK  185  A    between atoms: _426  and  _429
REMARK  186  A    between atoms: _429  and  _430
REMARK  187  A    between atoms: _430  and  _431
REMARK  188  A    between atoms: _431  and  _432
REMARK  189  A    between atoms: _432  and  _433
REMARK  190  A    between atoms: _437  and  _439
REMARK  191  A    between atoms: _439  and  _440
REMARK  192  A    between atoms: _442  and  _444
REMARK  193  A    between atoms: _444  and  _445
REMARK  194  A    between atoms: _444  and  _447
REMARK  195  A    between atoms: _447  and  _448
REMARK  196  A    between atoms: _448  and  _449
REMARK  197  A    between atoms: _451  and  _453
REMARK  198  A    between atoms: _453  and  _454
REMARK  199  A    between atoms: _453  and  _456
REMARK  200  A    between atoms: _456  and  _457
REMARK  201  A    between atoms: _457  and  _458
REMARK  202  A    between atoms: _461  and  _463
REMARK  203  A    between atoms: _463  and  _464
REMARK  204  A    between atoms: _463  and  _466
REMARK  205  A    between atoms: _466  and  _467
REMARK  206  A    between atoms: _472  and  _474
REMARK  207  A    between atoms: _474  and  _475
REMARK  208  A    between atoms: _474  and  _477
REMARK  209  A    between atoms: _477  and  _478
REMARK  210  A    between atoms: _481  and  _483
REMARK  211  A    between atoms: _483  and  _484
REMARK  212  A    between atoms: _483  and  _486
REMARK  213  A    between atoms: _486  and  _487
REMARK  214  A    between atoms: _492  and  _493
REMARK  215  A    between atoms: _495  and  _497
REMARK  216  A    between atoms: _497  and  _498
REMARK  217  A    between atoms: _497  and  _500
REMARK  218  A    between atoms: _500  and  _501
REMARK  219  A    between atoms: _503  and  _505
REMARK  220  A    between atoms: _505  and  _506
REMARK  221  A    between atoms: _505  and  _508
REMARK  222  A    between atoms: _508  and  _509
REMARK  223  A    between atoms: _509  and  _510
REMARK  224  A    between atoms: _512  and  _514
REMARK  225  A    between atoms: _514  and  _515
REMARK  226  A    between atoms: _514  and  _517
REMARK  227  A    between atoms: _517  and  _518
REMARK  228  A    between atoms: _518  and  _519
REMARK  229  A    between atoms: _519  and  _520
REMARK  230  A    between atoms: _520  and  _521
REMARK  231  A    between atoms: _525  and  _527
REMARK  232  A    between atoms: _527  and  _528
REMARK  233  A    between atoms: _527  and  _530
REMARK  234  A    between atoms: _530  and  _531
REMARK  235  A    between atoms: _531  and  _532
REMARK  236  A    between atoms: _532  and  _533
REMARK  237  A    between atoms: _533  and  _534
REMARK  238  A    between atoms: _538  and  _540
REMARK  239  A    between atoms: _540  and  _541
REMARK  240  A    between atoms: _540  and  _543
REMARK  241  A    between atoms: _547  and  _548
REMARK  242  A    between atoms: _553  and  _555
REMARK  243  A    between atoms: _555  and  _556
REMARK  244  A    between atoms: _555  and  _558
REMARK  245  A    between atoms: _558  and  _559
REMARK  246  A    between atoms: _562  and  _564
REMARK  247  A    between atoms: _564  and  _565
REMARK  248  A    between atoms: _564  and  _567
REMARK  249  A    between atoms: _567  and  _568
REMARK  250  A    between atoms: _571  and  _573
REMARK  251  A    between atoms: _573  and  _574
REMARK  252  A    between atoms: _573  and  _576
REMARK  253  A    between atoms: _576  and  _577
REMARK  254  A    between atoms: _580  and  _582
REMARK  255  A    between atoms: _582  and  _583
REMARK  256  A    between atoms: _582  and  _585
REMARK  257  A    between atoms: _585  and  _586
REMARK  258  A    between atoms: _586  and  _587
REMARK                            x       y       z     vdW  Elec       q    Type
REMARK                         _______ _______ _______ _____ _____    ______ ____
ROOT
ATOM      1  O   HOH     1      30.222  -6.347  16.830  0.00  0.00    +0.000 OA
ENDROOT
TORSDOF 0
REMARK  Name = ../refined-set-2016/2ayr/2ayr_pocket.pdb
REMARK  258 active torsions:
REMARK  status: ('A' for Active; 'I' for Inactive)
REMARK    1  A    between atoms: _1  and  _3
REMARK    2  A    between atoms: _3  and  _4
REMARK    3  A    between atoms: _3  and  _6
REMARK    4  A    between atoms: _6  and  _7
REMARK    5  A    between atoms: _10  and  _12
REMARK    6  A    between atoms: _12  and  _13
REMARK    7  A    between atoms: _12  and  _15
REMARK    8  A    between atoms: _15  and  _16
REMARK    9  A    between atoms: _16  and  _17
REMARK   10  A    between atoms: _19  and  _21
REMARK   11  A    between atoms: _21  and  _22
REMARK   12  A    between atoms: _21  and  _24
REMARK   13  A    between atoms: _24  and  _25
REMARK   14  A    between atoms: _25  and  _26
REMARK   15  A    between atoms: _28  and  _30
REMARK   16  A    between atoms: _30  and  _31
REMARK   17  A    between atoms: _33  and  _35
REMARK   18  A    between atoms: _35  and  _36
REMARK   19  A    between atoms: _35  and  _38
REMARK   20  A    between atoms: _38  and  _39
REMARK   21  A    between atoms: _42  and  _44
REMARK   22  A    between atoms: _44  and  _45
REMARK   23  A    between atoms: _44  and  _47
REMARK   24  A    between atoms: _47  and  _48
REMARK   25  A    between atoms: _51  and  _53
REMARK   26  A    between atoms: _53  and  _54
REMARK   27  A    between atoms: _53  and  _56
REMARK   28  A    between atoms: _56  and  _57
REMARK   29  A    between atoms: _60  and  _62
REMARK   30  A    between atoms: _62  and  _63
REMARK   31  A    between atoms: _62  and  _65
REMARK   32  A    between atoms: _65  and  _66
REMARK   33  A    between atoms: _71  and  _73
REMARK   34  A    between atoms: _73  and  _74
REMARK   35  A    between atoms: _73  and  _76
REMARK   36  A    between atoms: _76  and  _77
REMARK   37  A    between atoms: _80  and  _82
REMARK   38  A    between atoms: _82  and  _83
REMARK   39  A    between atoms: _86  and  _88
REMARK   40  A    between atoms: _88  and  _89
REMARK   41  A    between atoms: _88  and  _91
REMARK   42  A    between atoms: _91  and  _92
REMARK   43  A    between atoms: _95  and  _97
REMARK   44  A    between atoms: _97  and  _98
REMARK   45  A    between atoms: _97  and  _100
REMARK   46  A    between atoms: _100  and  _101
REMARK   47  A    between atoms: _101  and  _102
REMARK   48  A    between atoms: _102  and  _103
REMARK   49  A    between atoms: _112  and  _114
REMARK   50  A    between atoms: _114  and  _115
REMARK   51  A    between atoms: _114  and  _117
REMARK   52  A    between atoms: _117  and  _118
REMARK   53  A    between atoms: _118  and  _119
REMARK   54  A    between atoms: _122  and  _124
REMARK   55  A    between atoms: _124  and  _125
REMARK   56  A    between atoms: _124  and  _127
REMARK   57  A    between atoms: _127  and  _128
REMARK   58  A    between atoms: _131  and  _133
REMARK   59  A    between atoms: _133  and  _134
REMARK   60  A    between atoms: _133  and  _136
REMARK   61  A    between atoms: _139  and  _141
REMARK   62  A    between atoms: _141  and  _142
REMARK   63  A    between atoms: _141  and  _144
REMARK   64  A    between atoms: _144  and  _145
REMARK   65  A    between atoms: _145  and  _146
REMARK   66  A    between atoms: _148  and  _150
REMARK   67  A    between atoms: _150  and  _151
REMARK   68  A    between atoms: _150  and  _153
REMARK   69  A    between atoms: _153  and  _154
REMARK   70  A    between atoms: _164  and  _166
REMARK   71  A    between atoms: _166  and  _167
REMARK   72  A    between atoms: _166  and  _169
REMARK   73  A    between atoms: _169  and  _170
REMARK   74  A    between atoms: _173  and  _175
REMARK   75  A    between atoms: _175  and  _176
REMARK   76  A    between atoms: _175  and  _178
REMARK   77  A    between atoms: _178  and  _179
REMARK   78  A    between atoms: _179  and  _180
REMARK   79  A    between atoms: _183  and  _185
REMARK   80  A    between atoms: _185  and  _186
REMARK   81  A    between atoms: _185  and  _188
REMARK   82  A    between atoms: _188  and  _189
REMARK   83  A    between atoms: _192  and  _194
REMARK   84  A    between atoms: _194  and  _195
REMARK   85  A    between atoms: _194  and  _197
REMARK   86  A    between atoms: _197  and  _198
REMARK   87  A    between atoms: _201  and  _203
REMARK   88  A    between atoms: _203  and  _204
REMARK   89  A    between atoms: _203  and  _206
REMARK   90  A    between atoms: _206  and  _207
REMARK   91  A    between atoms: _207  and  _208
REMARK   92  A    between atoms: _210  and  _212
REMARK   93  A    between atoms: _212  and  _213
REMARK   94  A    between atoms: _212  and  _215
REMARK   95  A    between atoms: _215  and  _216
REMARK   96  A    between atoms: _219  and  _221
REMARK   97  A    between atoms: _221  and  _222
REMARK   98  A    between atoms: _224  and  _226
REMARK   99  A    between atoms: _226  and  _227
REMARK  100  A    between atoms: _226  and  _229
REMARK  101  A    between atoms: _229  and  _230
REMARK  102  A    between atoms: _233  and  _235
REMARK  103  A    between atoms: _235  and  _236
REMARK  104  A    between atoms: _235  and  _238
REMARK  105  A    between atoms: _241  and  _243
REMARK  106  A    between atoms: _243  and  _244
REMARK  107  A    between atoms: _243  and  _246
REMARK  108  A    between atoms: _246  and  _247
REMARK  109  A    between atoms: _247  and  _248
REMARK  110  A    between atoms: _248  and  _249
REMARK  111  A    between atoms: _258  and  _260
REMARK  112  A    between atoms: _260  and  _261
REMARK  113  A    between atoms: _260  and  _263
REMARK  114  A    between atoms: _263  and  _264
REMARK  115  A    between atoms: _266  and  _268
REMARK  116  A    between atoms: _268  and  _269
REMARK  117  A    between atoms: _268  and  _271
REMARK  118  A    between atoms: _271  and  _272
REMARK  119  A    between atoms: _275  and  _277
REMARK  120  A    between atoms: _277  and  _278
REMARK  121  A    between atoms: _277  and  _280
REMARK  122  A    between atoms: _280  and  _281
REMARK  123  A    between atoms: _284  and  _286
REMARK  124  A    between atoms: _286  and  _287
REMARK  125  A    between atoms: _286  and  _289
REMARK  126  A    between atoms: _289  and  _290
REMARK  127  A    between atoms: _296  and  _298
REMARK  128  A    between atoms: _298  and  _299
REMARK  129  A    between atoms: _302  and  _304
REMARK  130  A    between atoms: _304  and  _305
REMARK  131  A    between atoms: _304  and  _307
REMARK  132  A    between atoms: _307  and  _308
REMARK  133  A    between atoms: _311  and  _313
REMARK  134  A    between atoms: _313  and  _314
REMARK  135  A    between atoms: _316  and  _318
REMARK  136  A    between atoms: _318  and  _319
REMARK  137  A    between atoms: _318  and  _321
REMARK  138  A    between atoms: _324  and  _326
REMARK  139  A    between atoms: _326  and  _327
REMARK  140  A    between atoms: _326  and  _329
REMARK  141  A    between atoms: _329  and  _330
REMARK  142  A    between atoms: _330  and  _331
REMARK  143  A    between atoms: _334  and  _336
REMARK  144  A    between atoms: _336  and  _337
REMARK  145  A    between atoms: _339  and  _341
REMARK  146  A    between atoms: _341  and  _342
REMARK  147  A    between atoms: _341  and  _344
REMARK  148  A    between atoms: _344  and  _345
REMARK  149  A    between atoms: _345  and  _346
REMARK  150  A    between atoms: _348  and  _350
REMARK  151  A    between atoms: _350  and  _351
REMARK  152  A    between atoms: _350  and  _353
REMARK  153  A    between atoms: _356  and  _358
REMARK  154  A    between atoms: _358  and  _359
REMARK  155  A    between atoms: _358  and  _361
REMARK  156  A    between atoms: _361  and  _362
REMARK  157  A    between atoms: _362  and  _363
REMARK  158  A    between atoms: _366  and  _368
REMARK  159  A    between atoms: _368  and  _369
REMARK  160  A    between atoms: _368  and  _371
REMARK  161  A    between atoms: _371  and  _372
REMARK  162  A    between atoms: _375  and  _377
REMARK  163  A    between atoms: _377  and  _378
REMARK  164  A    between atoms: _377  and  _380
REMARK  165  A    between atoms: _380  and  _381
REMARK  166  A    between atoms: _387  and  _389
REMARK  167  A    between atoms: _389  and  _390
REMARK  168  A    between atoms: _389  and  _392
REMARK  169  A    between atoms: _392  and  _393
REMARK  170  A    between atoms: _396  and  _398
REMARK  171  A    between atoms: _398  and  _399
REMARK  172  A    between atoms: _398  and  _401
REMARK  173  A    between atoms: _401  and  _402
REMARK  174  A    between atoms: _402  and  _403
REMARK  175  A    between atoms: _405  and  _407
REMARK  176  A    between atoms: _407  and  _408
REMARK  177  A    between atoms: _407  and  _410
REMARK  178  A    between atoms: _410  and  _411
REMARK  179  A    between atoms: _413  and  _415
REMARK  180  A    between atoms: _415  and  _416
REMARK  181  A    between atoms: _415  and  _418
REMARK  182  A    between atoms: _418  and  _419
REMARK  183  A    between atoms: _424  and  _426
REMARK  184  A    between atoms: _426  and  _427
REMARK  185  A    between atoms: _426  and  _429
REMARK  186  A    between atoms: _429  and  _430
REMARK  187  A    between atoms: _430  and  _431
REMARK  188  A    between atoms: _431  and  _432
REMARK  189  A    between atoms: _432  and  _433
REMARK  190  A    between atoms: _437  and  _439
REMARK  191  A    between atoms: _439  and  _440
REMARK  192  A    between atoms: _442  and  _444
REMARK  193  A    between atoms: _444  and  _445
REMARK  194  A    between atoms: _444  and  _447
REMARK  195  A    between atoms: _447  and  _448
REMARK  196  A    between atoms: _448  and  _449
REMARK  197  A    between atoms: _451  and  _453
REMARK  198  A    between atoms: _453  and  _454
REMARK  199  A    between atoms: _453  and  _456
REMARK  200  A    between atoms: _456  and  _457
REMARK  201  A    between atoms: _457  and  _458
REMARK  202  A    between atoms: _461  and  _463
REMARK  203  A    between atoms: _463  and  _464
REMARK  204  A    between atoms: _463  and  _466
REMARK  205  A    between atoms: _466  and  _467
REMARK  206  A    between atoms: _472  and  _474
REMARK  207  A    between atoms: _474  and  _475
REMARK  208  A    between atoms: _474  and  _477
REMARK  209  A    between atoms: _477  and  _478
REMARK  210  A    between atoms: _481  and  _483
REMARK  211  A    between atoms: _483  and  _484
REMARK  212  A    between atoms: _483  and  _486
REMARK  213  A    between atoms: _486  and  _487
REMARK  214  A    between atoms: _492  and  _493
REMARK  215  A    between atoms: _495  and  _497
REMARK  216  A    between atoms: _497  and  _498
REMARK  217  A    between atoms: _497  and  _500
REMARK  218  A    between atoms: _500  and  _501
REMARK  219  A    between atoms: _503  and  _505
REMARK  220  A    between atoms: _505  and  _506
REMARK  221  A    between atoms: _505  and  _508
REMARK  222  A    between atoms: _508  and  _509
REMARK  223  A    between atoms: _509  and  _510
REMARK  224  A    between atoms: _512  and  _514
REMARK  225  A    between atoms: _514  and  _515
REMARK  226  A    between atoms: _514  and  _517
REMARK  227  A    between atoms: _517  and  _518
REMARK  228  A    between atoms: _518  and  _519
REMARK  229  A    between atoms: _519  and  _520
REMARK  230  A    between atoms: _520  and  _521
REMARK  231  A    between atoms: _525  and  _527
REMARK  232  A    between atoms: _527  and  _528
REMARK  233  A    between atoms: _527  and  _530
REMARK  234  A    between atoms: _530  and  _531
REMARK  235  A    between atoms: _531  and  _532
REMARK  236  A    between atoms: _532  and  _533
REMARK  237  A    between atoms: _533  and  _534
REMARK  238  A    between atoms: _538  and  _540
REMARK  239  A    between atoms: _540  and  _541
REMARK  240  A    between atoms: _540  and  _543
REMARK  241  A    between atoms: _547  and  _548
REMARK  242  A    between atoms: _553  and  _555
REMARK  243  A    between atoms: _555  and  _556
REMARK  244  A    between atoms: _555  and  _558
REMARK  245  A    between atoms: _558  and  _559
REMARK  246  A    between atoms: _562  and  _564
REMARK  247  A    between atoms: _564  and  _565
REMARK  248  A    between atoms: _564  and  _567
REMARK  249  A    between atoms: _567  and  _568
REMARK  250  A    between atoms: _571  and  _573
REMARK  251  A    between atoms: _573  and  _574
REMARK  252  A    between atoms: _573  and  _576
REMARK  253  A    between atoms: _576  and  _577
REMARK  254  A    between atoms: _580  and  _582
REMARK  255  A    between atoms: _582  and  _583
REMARK  256  A    between atoms: _582  and  _585
REMARK  257  A    between atoms: _585  and  _586
REMARK  258  A    between atoms: _586  and  _587
REMARK                            x       y       z     vdW  Elec       q    Type
REMARK                         _______ _______ _______ _____ _____    ______ ____
ROOT
ATOM      1  O   HOH     1      37.692   1.381  26.000  0.00  0.00    +0.000 OA
ENDROOT
TORSDOF 0
REMARK  Name = ../refined-set-2016/2ayr/2ayr_pocket.pdb
REMARK  258 active torsions:
REMARK  status: ('A' for Active; 'I' for Inactive)
REMARK    1  A    between atoms: _1  and  _3
REMARK    2  A    between atoms: _3  and  _4
REMARK    3  A    between atoms: _3  and  _6
REMARK    4  A    between atoms: _6  and  _7
REMARK    5  A    between atoms: _10  and  _12
REMARK    6  A    between atoms: _12  and  _13
REMARK    7  A    between atoms: _12  and  _15
REMARK    8  A    between atoms: _15  and  _16
REMARK    9  A    between atoms: _16  and  _17
REMARK   10  A    between atoms: _19  and  _21
REMARK   11  A    between atoms: _21  and  _22
REMARK   12  A    between atoms: _21  and  _24
REMARK   13  A    between atoms: _24  and  _25
REMARK   14  A    between atoms: _25  and  _26
REMARK   15  A    between atoms: _28  and  _30
REMARK   16  A    between atoms: _30  and  _31
REMARK   17  A    between atoms: _33  and  _35
REMARK   18  A    between atoms: _35  and  _36
REMARK   19  A    between atoms: _35  and  _38
REMARK   20  A    between atoms: _38  and  _39
REMARK   21  A    between atoms: _42  and  _44
REMARK   22  A    between atoms: _44  and  _45
REMARK   23  A    between atoms: _44  and  _47
REMARK   24  A    between atoms: _47  and  _48
REMARK   25  A    between atoms: _51  and  _53
REMARK   26  A    between atoms: _53  and  _54
REMARK   27  A    between atoms: _53  and  _56
REMARK   28  A    between atoms: _56  and  _57
REMARK   29  A    between atoms: _60  and  _62
REMARK   30  A    between atoms: _62  and  _63
REMARK   31  A    between atoms: _62  and  _65
REMARK   32  A    between atoms: _65  and  _66
REMARK   33  A    between atoms: _71  and  _73
REMARK   34  A    between atoms: _73  and  _74
REMARK   35  A    between atoms: _73  and  _76
REMARK   36  A    between atoms: _76  and  _77
REMARK   37  A    between atoms: _80  and  _82
REMARK   38  A    between atoms: _82  and  _83
REMARK   39  A    between atoms: _86  and  _88
REMARK   40  A    between atoms: _88  and  _89
REMARK   41  A    between atoms: _88  and  _91
REMARK   42  A    between atoms: _91  and  _92
REMARK   43  A    between atoms: _95  and  _97
REMARK   44  A    between atoms: _97  and  _98
REMARK   45  A    between atoms: _97  and  _100
REMARK   46  A    between atoms: _100  and  _101
REMARK   47  A    between atoms: _101  and  _102
REMARK   48  A    between atoms: _102  and  _103
REMARK   49  A    between atoms: _112  and  _114
REMARK   50  A    between atoms: _114  and  _115
REMARK   51  A    between atoms: _114  and  _117
REMARK   52  A    between atoms: _117  and  _118
REMARK   53  A    between atoms: _118  and  _119
REMARK   54  A    between atoms: _122  and  _124
REMARK   55  A    between atoms: _124  and  _125
REMARK   56  A    between atoms: _124  and  _127
REMARK   57  A    between atoms: _127  and  _128
REMARK   58  A    between atoms: _131  and  _133
REMARK   59  A    between atoms: _133  and  _134
REMARK   60  A    between atoms: _133  and  _136
REMARK   61  A    between atoms: _139  and  _141
REMARK   62  A    between atoms: _141  and  _142
REMARK   63  A    between atoms: _141  and  _144
REMARK   64  A    between atoms: _144  and  _145
REMARK   65  A    between atoms: _145  and  _146
REMARK   66  A    between atoms: _148  and  _150
REMARK   67  A    between atoms: _150  and  _151
REMARK   68  A    between atoms: _150  and  _153
REMARK   69  A    between atoms: _153  and  _154
REMARK   70  A    between atoms: _164  and  _166
REMARK   71  A    between atoms: _166  and  _167
REMARK   72  A    between atoms: _166  and  _169
REMARK   73  A    between atoms: _169  and  _170
REMARK   74  A    between atoms: _173  and  _175
REMARK   75  A    between atoms: _175  and  _176
REMARK   76  A    between atoms: _175  and  _178
REMARK   77  A    between atoms: _178  and  _179
REMARK   78  A    between atoms: _179  and  _180
REMARK   79  A    between atoms: _183  and  _185
REMARK   80  A    between atoms: _185  and  _186
REMARK   81  A    between atoms: _185  and  _188
REMARK   82  A    between atoms: _188  and  _189
REMARK   83  A    between atoms: _192  and  _194
REMARK   84  A    between atoms: _194  and  _195
REMARK   85  A    between atoms: _194  and  _197
REMARK   86  A    between atoms: _197  and  _198
REMARK   87  A    between atoms: _201  and  _203
REMARK   88  A    between atoms: _203  and  _204
REMARK   89  A    between atoms: _203  and  _206
REMARK   90  A    between atoms: _206  and  _207
REMARK   91  A    between atoms: _207  and  _208
REMARK   92  A    between atoms: _210  and  _212
REMARK   93  A    between atoms: _212  and  _213
REMARK   94  A    between atoms: _212  and  _215
REMARK   95  A    between atoms: _215  and  _216
REMARK   96  A    between atoms: _219  and  _221
REMARK   97  A    between atoms: _221  and  _222
REMARK   98  A    between atoms: _224  and  _226
REMARK   99  A    between atoms: _226  and  _227
REMARK  100  A    between atoms: _226  and  _229
REMARK  101  A    between atoms: _229  and  _230
REMARK  102  A    between atoms: _233  and  _235
REMARK  103  A    between atoms: _235  and  _236
REMARK  104  A    between atoms: _235  and  _238
REMARK  105  A    between atoms: _241  and  _243
REMARK  106  A    between atoms: _243  and  _244
REMARK  107  A    between atoms: _243  and  _246
REMARK  108  A    between atoms: _246  and  _247
REMARK  109  A    between atoms: _247  and  _248
REMARK  110  A    between atoms: _248  and  _249
REMARK  111  A    between atoms: _258  and  _260
REMARK  112  A    between atoms: _260  and  _261
REMARK  113  A    between atoms: _260  and  _263
REMARK  114  A    between atoms: _263  and  _264
REMARK  115  A    between atoms: _266  and  _268
REMARK  116  A    between atoms: _268  and  _269
REMARK  117  A    between atoms: _268  and  _271
REMARK  118  A    between atoms: _271  and  _272
REMARK  119  A    between atoms: _275  and  _277
REMARK  120  A    between atoms: _277  and  _278
REMARK  121  A    between atoms: _277  and  _280
REMARK  122  A    between atoms: _280  and  _281
REMARK  123  A    between atoms: _284  and  _286
REMARK  124  A    between atoms: _286  and  _287
REMARK  125  A    between atoms: _286  and  _289
REMARK  126  A    between atoms: _289  and  _290
REMARK  127  A    between atoms: _296  and  _298
REMARK  128  A    between atoms: _298  and  _299
REMARK  129  A    between atoms: _302  and  _304
REMARK  130  A    between atoms: _304  and  _305
REMARK  131  A    between atoms: _304  and  _307
REMARK  132  A    between atoms: _307  and  _308
REMARK  133  A    between atoms: _311  and  _313
REMARK  134  A    between atoms: _313  and  _314
REMARK  135  A    between atoms: _316  and  _318
REMARK  136  A    between atoms: _318  and  _319
REMARK  137  A    between atoms: _318  and  _321
REMARK  138  A    between atoms: _324  and  _326
REMARK  139  A    between atoms: _326  and  _327
REMARK  140  A    between atoms: _326  and  _329
REMARK  141  A    between atoms: _329  and  _330
REMARK  142  A    between atoms: _330  and  _331
REMARK  143  A    between atoms: _334  and  _336
REMARK  144  A    between atoms: _336  and  _337
REMARK  145  A    between atoms: _339  and  _341
REMARK  146  A    between atoms: _341  and  _342
REMARK  147  A    between atoms: _341  and  _344
REMARK  148  A    between atoms: _344  and  _345
REMARK  149  A    between atoms: _345  and  _346
REMARK  150  A    between atoms: _348  and  _350
REMARK  151  A    between atoms: _350  and  _351
REMARK  152  A    between atoms: _350  and  _353
REMARK  153  A    between atoms: _356  and  _358
REMARK  154  A    between atoms: _358  and  _359
REMARK  155  A    between atoms: _358  and  _361
REMARK  156  A    between atoms: _361  and  _362
REMARK  157  A    between atoms: _362  and  _363
REMARK  158  A    between atoms: _366  and  _368
REMARK  159  A    between atoms: _368  and  _369
REMARK  160  A    between atoms: _368  and  _371
REMARK  161  A    between atoms: _371  and  _372
REMARK  162  A    between atoms: _375  and  _377
REMARK  163  A    between atoms: _377  and  _378
REMARK  164  A    between atoms: _377  and  _380
REMARK  165  A    between atoms: _380  and  _381
REMARK  166  A    between atoms: _387  and  _389
REMARK  167  A    between atoms: _389  and  _390
REMARK  168  A    between atoms: _389  and  _392
REMARK  169  A    between atoms: _392  and  _393
REMARK  170  A    between atoms: _396  and  _398
REMARK  171  A    between atoms: _398  and  _399
REMARK  172  A    between atoms: _398  and  _401
REMARK  173  A    between atoms: _401  and  _402
REMARK  174  A    between atoms: _402  and  _403
REMARK  175  A    between atoms: _405  and  _407
REMARK  176  A    between atoms: _407  and  _408
REMARK  177  A    between atoms: _407  and  _410
REMARK  178  A    between atoms: _410  and  _411
REMARK  179  A    between atoms: _413  and  _415
REMARK  180  A    between atoms: _415  and  _416
REMARK  181  A    between atoms: _415  and  _418
REMARK  182  A    between atoms: _418  and  _419
REMARK  183  A    between atoms: _424  and  _426
REMARK  184  A    between atoms: _426  and  _427
REMARK  185  A    between atoms: _426  and  _429
REMARK  186  A    between atoms: _429  and  _430
REMARK  187  A    between atoms: _430  and  _431
REMARK  188  A    between atoms: _431  and  _432
REMARK  189  A    between atoms: _432  and  _433
REMARK  190  A    between atoms: _437  and  _439
REMARK  191  A    between atoms: _439  and  _440
REMARK  192  A    between atoms: _442  and  _444
REMARK  193  A    between atoms: _444  and  _445
REMARK  194  A    between atoms: _444  and  _447
REMARK  195  A    between atoms: _447  and  _448
REMARK  196  A    between atoms: _448  and  _449
REMARK  197  A    between atoms: _451  and  _453
REMARK  198  A    between atoms: _453  and  _454
REMARK  199  A    between atoms: _453  and  _456
REMARK  200  A    between atoms: _456  and  _457
REMARK  201  A    between atoms: _457  and  _458
REMARK  202  A    between atoms: _461  and  _463
REMARK  203  A    between atoms: _463  and  _464
REMARK  204  A    between atoms: _463  and  _466
REMARK  205  A    between atoms: _466  and  _467
REMARK  206  A    between atoms: _472  and  _474
REMARK  207  A    between atoms: _474  and  _475
REMARK  208  A    between atoms: _474  and  _477
REMARK  209  A    between atoms: _477  and  _478
REMARK  210  A    between atoms: _481  and  _483
REMARK  211  A    between atoms: _483  and  _484
REMARK  212  A    between atoms: _483  and  _486
REMARK  213  A    between atoms: _486  and  _487
REMARK  214  A    between atoms: _492  and  _493
REMARK  215  A    between atoms: _495  and  _497
REMARK  216  A    between atoms: _497  and  _498
REMARK  217  A    between atoms: _497  and  _500
REMARK  218  A    between atoms: _500  and  _501
REMARK  219  A    between atoms: _503  and  _505
REMARK  220  A    between atoms: _505  and  _506
REMARK  221  A    between atoms: _505  and  _508
REMARK  222  A    between atoms: _508  and  _509
REMARK  223  A    between atoms: _509  and  _510
REMARK  224  A    between atoms: _512  and  _514
REMARK  225  A    between atoms: _514  and  _515
REMARK  226  A    between atoms: _514  and  _517
REMARK  227  A    between atoms: _517  and  _518
REMARK  228  A    between atoms: _518  and  _519
REMARK  229  A    between atoms: _519  and  _520
REMARK  230  A    between atoms: _520  and  _521
REMARK  231  A    between atoms: _525  and  _527
REMARK  232  A    between atoms: _527  and  _528
REMARK  233  A    between atoms: _527  and  _530
REMARK  234  A    between atoms: _530  and  _531
REMARK  235  A    between atoms: _531  and  _532
REMARK  236  A    between atoms: _532  and  _533
REMARK  237  A    between atoms: _533  and  _534
REMARK  238  A    between atoms: _538  and  _540
REMARK  239  A    between atoms: _540  and  _541
REMARK  240  A    between atoms: _540  and  _543
REMARK  241  A    between atoms: _547  and  _548
REMARK  242  A    between atoms: _553  and  _555
REMARK  243  A    between atoms: _555  and  _556
REMARK  244  A    between atoms: _555  and  _558
REMARK  245  A    between atoms: _558  and  _559
REMARK  246  A    between atoms: _562  and  _564
REMARK  247  A    between atoms: _564  and  _565
REMARK  248  A    between atoms: _564  and  _567
REMARK  249  A    between atoms: _567  and  _568
REMARK  250  A    between atoms: _571  and  _573
REMARK  251  A    between atoms: _573  and  _574
REMARK  252  A    between atoms: _573  and  _576
REMARK  253  A    between atoms: _576  and  _577
REMARK  254  A    between atoms: _580  and  _582
REMARK  255  A    between atoms: _582  and  _583
REMARK  256  A    between atoms: _582  and  _585
REMARK  257  A    between atoms: _585  and  _586
REMARK  258  A    between atoms: _586  and  _587
REMARK                            x       y       z     vdW  Elec       q    Type
REMARK                         _______ _______ _______ _____ _____    ______ ____
ROOT
ATOM      1  O   HOH     1      43.492  -2.803  31.588  0.00  0.00    +0.000 OA
ENDROOT
TORSDOF 0
REMARK  Name = ../refined-set-2016/2ayr/2ayr_pocket.pdb
REMARK  258 active torsions:
REMARK  status: ('A' for Active; 'I' for Inactive)
REMARK    1  A    between atoms: _1  and  _3
REMARK    2  A    between atoms: _3  and  _4
REMARK    3  A    between atoms: _3  and  _6
REMARK    4  A    between atoms: _6  and  _7
REMARK    5  A    between atoms: _10  and  _12
REMARK    6  A    between atoms: _12  and  _13
REMARK    7  A    between atoms: _12  and  _15
REMARK    8  A    between atoms: _15  and  _16
REMARK    9  A    between atoms: _16  and  _17
REMARK   10  A    between atoms: _19  and  _21
REMARK   11  A    between atoms: _21  and  _22
REMARK   12  A    between atoms: _21  and  _24
REMARK   13  A    between atoms: _24  and  _25
REMARK   14  A    between atoms: _25  and  _26
REMARK   15  A    between atoms: _28  and  _30
REMARK   16  A    between atoms: _30  and  _31
REMARK   17  A    between atoms: _33  and  _35
REMARK   18  A    between atoms: _35  and  _36
REMARK   19  A    between atoms: _35  and  _38
REMARK   20  A    between atoms: _38  and  _39
REMARK   21  A    between atoms: _42  and  _44
REMARK   22  A    between atoms: _44  and  _45
REMARK   23  A    between atoms: _44  and  _47
REMARK   24  A    between atoms: _47  and  _48
REMARK   25  A    between atoms: _51  and  _53
REMARK   26  A    between atoms: _53  and  _54
REMARK   27  A    between atoms: _53  and  _56
REMARK   28  A    between atoms: _56  and  _57
REMARK   29  A    between atoms: _60  and  _62
REMARK   30  A    between atoms: _62  and  _63
REMARK   31  A    between atoms: _62  and  _65
REMARK   32  A    between atoms: _65  and  _66
REMARK   33  A    between atoms: _71  and  _73
REMARK   34  A    between atoms: _73  and  _74
REMARK   35  A    between atoms: _73  and  _76
REMARK   36  A    between atoms: _76  and  _77
REMARK   37  A    between atoms: _80  and  _82
REMARK   38  A    between atoms: _82  and  _83
REMARK   39  A    between atoms: _86  and  _88
REMARK   40  A    between atoms: _88  and  _89
REMARK   41  A    between atoms: _88  and  _91
REMARK   42  A    between atoms: _91  and  _92
REMARK   43  A    between atoms: _95  and  _97
REMARK   44  A    between atoms: _97  and  _98
REMARK   45  A    between atoms: _97  and  _100
REMARK   46  A    between atoms: _100  and  _101
REMARK   47  A    between atoms: _101  and  _102
REMARK   48  A    between atoms: _102  and  _103
REMARK   49  A    between atoms: _112  and  _114
REMARK   50  A    between atoms: _114  and  _115
REMARK   51  A    between atoms: _114  and  _117
REMARK   52  A    between atoms: _117  and  _118
REMARK   53  A    between atoms: _118  and  _119
REMARK   54  A    between atoms: _122  and  _124
REMARK   55  A    between atoms: _124  and  _125
REMARK   56  A    between atoms: _124  and  _127
REMARK   57  A    between atoms: _127  and  _128
REMARK   58  A    between atoms: _131  and  _133
REMARK   59  A    between atoms: _133  and  _134
REMARK   60  A    between atoms: _133  and  _136
REMARK   61  A    between atoms: _139  and  _141
REMARK   62  A    between atoms: _141  and  _142
REMARK   63  A    between atoms: _141  and  _144
REMARK   64  A    between atoms: _144  and  _145
REMARK   65  A    between atoms: _145  and  _146
REMARK   66  A    between atoms: _148  and  _150
REMARK   67  A    between atoms: _150  and  _151
REMARK   68  A    between atoms: _150  and  _153
REMARK   69  A    between atoms: _153  and  _154
REMARK   70  A    between atoms: _164  and  _166
REMARK   71  A    between atoms: _166  and  _167
REMARK   72  A    between atoms: _166  and  _169
REMARK   73  A    between atoms: _169  and  _170
REMARK   74  A    between atoms: _173  and  _175
REMARK   75  A    between atoms: _175  and  _176
REMARK   76  A    between atoms: _175  and  _178
REMARK   77  A    between atoms: _178  and  _179
REMARK   78  A    between atoms: _179  and  _180
REMARK   79  A    between atoms: _183  and  _185
REMARK   80  A    between atoms: _185  and  _186
REMARK   81  A    between atoms: _185  and  _188
REMARK   82  A    between atoms: _188  and  _189
REMARK   83  A    between atoms: _192  and  _194
REMARK   84  A    between atoms: _194  and  _195
REMARK   85  A    between atoms: _194  and  _197
REMARK   86  A    between atoms: _197  and  _198
REMARK   87  A    between atoms: _201  and  _203
REMARK   88  A    between atoms: _203  and  _204
REMARK   89  A    between atoms: _203  and  _206
REMARK   90  A    between atoms: _206  and  _207
REMARK   91  A    between atoms: _207  and  _208
REMARK   92  A    between atoms: _210  and  _212
REMARK   93  A    between atoms: _212  and  _213
REMARK   94  A    between atoms: _212  and  _215
REMARK   95  A    between atoms: _215  and  _216
REMARK   96  A    between atoms: _219  and  _221
REMARK   97  A    between atoms: _221  and  _222
REMARK   98  A    between atoms: _224  and  _226
REMARK   99  A    between atoms: _226  and  _227
REMARK  100  A    between atoms: _226  and  _229
REMARK  101  A    between atoms: _229  and  _230
REMARK  102  A    between atoms: _233  and  _235
REMARK  103  A    between atoms: _235  and  _236
REMARK  104  A    between atoms: _235  and  _238
REMARK  105  A    between atoms: _241  and  _243
REMARK  106  A    between atoms: _243  and  _244
REMARK  107  A    between atoms: _243  and  _246
REMARK  108  A    between atoms: _246  and  _247
REMARK  109  A    between atoms: _247  and  _248
REMARK  110  A    between atoms: _248  and  _249
REMARK  111  A    between atoms: _258  and  _260
REMARK  112  A    between atoms: _260  and  _261
REMARK  113  A    between atoms: _260  and  _263
REMARK  114  A    between atoms: _263  and  _264
REMARK  115  A    between atoms: _266  and  _268
REMARK  116  A    between atoms: _268  and  _269
REMARK  117  A    between atoms: _268  and  _271
REMARK  118  A    between atoms: _271  and  _272
REMARK  119  A    between atoms: _275  and  _277
REMARK  120  A    between atoms: _277  and  _278
REMARK  121  A    between atoms: _277  and  _280
REMARK  122  A    between atoms: _280  and  _281
REMARK  123  A    between atoms: _284  and  _286
REMARK  124  A    between atoms: _286  and  _287
REMARK  125  A    between atoms: _286  and  _289
REMARK  126  A    between atoms: _289  and  _290
REMARK  127  A    between atoms: _296  and  _298
REMARK  128  A    between atoms: _298  and  _299
REMARK  129  A    between atoms: _302  and  _304
REMARK  130  A    between atoms: _304  and  _305
REMARK  131  A    between atoms: _304  and  _307
REMARK  132  A    between atoms: _307  and  _308
REMARK  133  A    between atoms: _311  and  _313
REMARK  134  A    between atoms: _313  and  _314
REMARK  135  A    between atoms: _316  and  _318
REMARK  136  A    between atoms: _318  and  _319
REMARK  137  A    between atoms: _318  and  _321
REMARK  138  A    between atoms: _324  and  _326
REMARK  139  A    between atoms: _326  and  _327
REMARK  140  A    between atoms: _326  and  _329
REMARK  141  A    between atoms: _329  and  _330
REMARK  142  A    between atoms: _330  and  _331
REMARK  143  A    between atoms: _334  and  _336
REMARK  144  A    between atoms: _336  and  _337
REMARK  145  A    between atoms: _339  and  _341
REMARK  146  A    between atoms: _341  and  _342
REMARK  147  A    between atoms: _341  and  _344
REMARK  148  A    between atoms: _344  and  _345
REMARK  149  A    between atoms: _345  and  _346
REMARK  150  A    between atoms: _348  and  _350
REMARK  151  A    between atoms: _350  and  _351
REMARK  152  A    between atoms: _350  and  _353
REMARK  153  A    between atoms: _356  and  _358
REMARK  154  A    between atoms: _358  and  _359
REMARK  155  A    between atoms: _358  and  _361
REMARK  156  A    between atoms: _361  and  _362
REMARK  157  A    between atoms: _362  and  _363
REMARK  158  A    between atoms: _366  and  _368
REMARK  159  A    between atoms: _368  and  _369
REMARK  160  A    between atoms: _368  and  _371
REMARK  161  A    between atoms: _371  and  _372
REMARK  162  A    between atoms: _375  and  _377
REMARK  163  A    between atoms: _377  and  _378
REMARK  164  A    between atoms: _377  and  _380
REMARK  165  A    between atoms: _380  and  _381
REMARK  166  A    between atoms: _387  and  _389
REMARK  167  A    between atoms: _389  and  _390
REMARK  168  A    between atoms: _389  and  _392
REMARK  169  A    between atoms: _392  and  _393
REMARK  170  A    between atoms: _396  and  _398
REMARK  171  A    between atoms: _398  and  _399
REMARK  172  A    between atoms: _398  and  _401
REMARK  173  A    between atoms: _401  and  _402
REMARK  174  A    between atoms: _402  and  _403
REMARK  175  A    between atoms: _405  and  _407
REMARK  176  A    between atoms: _407  and  _408
REMARK  177  A    between atoms: _407  and  _410
REMARK  178  A    between atoms: _410  and  _411
REMARK  179  A    between atoms: _413  and  _415
REMARK  180  A    between atoms: _415  and  _416
REMARK  181  A    between atoms: _415  and  _418
REMARK  182  A    between atoms: _418  and  _419
REMARK  183  A    between atoms: _424  and  _426
REMARK  184  A    between atoms: _426  and  _427
REMARK  185  A    between atoms: _426  and  _429
REMARK  186  A    between atoms: _429  and  _430
REMARK  187  A    between atoms: _430  and  _431
REMARK  188  A    between atoms: _431  and  _432
REMARK  189  A    between atoms: _432  and  _433
REMARK  190  A    between atoms: _437  and  _439
REMARK  191  A    between atoms: _439  and  _440
REMARK  192  A    between atoms: _442  and  _444
REMARK  193  A    between atoms: _444  and  _445
REMARK  194  A    between atoms: _444  and  _447
REMARK  195  A    between atoms: _447  and  _448
REMARK  196  A    between atoms: _448  and  _449
REMARK  197  A    between atoms: _451  and  _453
REMARK  198  A    between atoms: _453  and  _454
REMARK  199  A    between atoms: _453  and  _456
REMARK  200  A    between atoms: _456  and  _457
REMARK  201  A    between atoms: _457  and  _458
REMARK  202  A    between atoms: _461  and  _463
REMARK  203  A    between atoms: _463  and  _464
REMARK  204  A    between atoms: _463  and  _466
REMARK  205  A    between atoms: _466  and  _467
REMARK  206  A    between atoms: _472  and  _474
REMARK  207  A    between atoms: _474  and  _475
REMARK  208  A    between atoms: _474  and  _477
REMARK  209  A    between atoms: _477  and  _478
REMARK  210  A    between atoms: _481  and  _483
REMARK  211  A    between atoms: _483  and  _484
REMARK  212  A    between atoms: _483  and  _486
REMARK  213  A    between atoms: _486  and  _487
REMARK  214  A    between atoms: _492  and  _493
REMARK  215  A    between atoms: _495  and  _497
REMARK  216  A    between atoms: _497  and  _498
REMARK  217  A    between atoms: _497  and  _500
REMARK  218  A    between atoms: _500  and  _501
REMARK  219  A    between atoms: _503  and  _505
REMARK  220  A    between atoms: _505  and  _506
REMARK  221  A    between atoms: _505  and  _508
REMARK  222  A    between atoms: _508  and  _509
REMARK  223  A    between atoms: _509  and  _510
REMARK  224  A    between atoms: _512  and  _514
REMARK  225  A    between atoms: _514  and  _515
REMARK  226  A    between atoms: _514  and  _517
REMARK  227  A    between atoms: _517  and  _518
REMARK  228  A    between atoms: _518  and  _519
REMARK  229  A    between atoms: _519  and  _520
REMARK  230  A    between atoms: _520  and  _521
REMARK  231  A    between atoms: _525  and  _527
REMARK  232  A    between atoms: _527  and  _528
REMARK  233  A    between atoms: _527  and  _530
REMARK  234  A    between atoms: _530  and  _531
REMARK  235  A    between atoms: _531  and  _532
REMARK  236  A    between atoms: _532  and  _533
REMARK  237  A    between atoms: _533  and  _534
REMARK  238  A    between atoms: _538  and  _540
REMARK  239  A    between atoms: _540  and  _541
REMARK  240  A    between atoms: _540  and  _543
REMARK  241  A    between atoms: _547  and  _548
REMARK  242  A    between atoms: _553  and  _555
REMARK  243  A    between atoms: _555  and  _556
REMARK  244  A    between atoms: _555  and  _558
REMARK  245  A    between atoms: _558  and  _559
REMARK  246  A    between atoms: _562  and  _564
REMARK  247  A    between atoms: _564  and  _565
REMARK  248  A    between atoms: _564  and  _567
REMARK  249  A    between atoms: _567  and  _568
REMARK  250  A    between atoms: _571  and  _573
REMARK  251  A    between atoms: _573  and  _574
REMARK  252  A    between atoms: _573  and  _576
REMARK  253  A    between atoms: _576  and  _577
REMARK  254  A    between atoms: _580  and  _582
REMARK  255  A    between atoms: _582  and  _583
REMARK  256  A    between atoms: _582  and  _585
REMARK  257  A    between atoms: _585  and  _586
REMARK  258  A    between atoms: _586  and  _587
REMARK                            x       y       z     vdW  Elec       q    Type
REMARK                         _______ _______ _______ _____ _____    ______ ____
ROOT
ATOM      1  O   HOH     1      38.700   6.754  31.305  0.00  0.00    +0.000 OA
ENDROOT
TORSDOF 0
REMARK  Name = ../refined-set-2016/2ayr/2ayr_pocket.pdb
REMARK  258 active torsions:
REMARK  status: ('A' for Active; 'I' for Inactive)
REMARK    1  A    between atoms: _1  and  _3
REMARK    2  A    between atoms: _3  and  _4
REMARK    3  A    between atoms: _3  and  _6
REMARK    4  A    between atoms: _6  and  _7
REMARK    5  A    between atoms: _10  and  _12
REMARK    6  A    between atoms: _12  and  _13
REMARK    7  A    between atoms: _12  and  _15
REMARK    8  A    between atoms: _15  and  _16
REMARK    9  A    between atoms: _16  and  _17
REMARK   10  A    between atoms: _19  and  _21
REMARK   11  A    between atoms: _21  and  _22
REMARK   12  A    between atoms: _21  and  _24
REMARK   13  A    between atoms: _24  and  _25
REMARK   14  A    between atoms: _25  and  _26
REMARK   15  A    between atoms: _28  and  _30
REMARK   16  A    between atoms: _30  and  _31
REMARK   17  A    between atoms: _33  and  _35
REMARK   18  A    between atoms: _35  and  _36
REMARK   19  A    between atoms: _35  and  _38
REMARK   20  A    between atoms: _38  and  _39
REMARK   21  A    between atoms: _42  and  _44
REMARK   22  A    between atoms: _44  and  _45
REMARK   23  A    between atoms: _44  and  _47
REMARK   24  A    between atoms: _47  and  _48
REMARK   25  A    between atoms: _51  and  _53
REMARK   26  A    between atoms: _53  and  _54
REMARK   27  A    between atoms: _53  and  _56
REMARK   28  A    between atoms: _56  and  _57
REMARK   29  A    between atoms: _60  and  _62
REMARK   30  A    between atoms: _62  and  _63
REMARK   31  A    between atoms: _62  and  _65
REMARK   32  A    between atoms: _65  and  _66
REMARK   33  A    between atoms: _71  and  _73
REMARK   34  A    between atoms: _73  and  _74
REMARK   35  A    between atoms: _73  and  _76
REMARK   36  A    between atoms: _76  and  _77
REMARK   37  A    between atoms: _80  and  _82
REMARK   38  A    between atoms: _82  and  _83
REMARK   39  A    between atoms: _86  and  _88
REMARK   40  A    between atoms: _88  and  _89
REMARK   41  A    between atoms: _88  and  _91
REMARK   42  A    between atoms: _91  and  _92
REMARK   43  A    between atoms: _95  and  _97
REMARK   44  A    between atoms: _97  and  _98
REMARK   45  A    between atoms: _97  and  _100
REMARK   46  A    between atoms: _100  and  _101
REMARK   47  A    between atoms: _101  and  _102
REMARK   48  A    between atoms: _102  and  _103
REMARK   49  A    between atoms: _112  and  _114
REMARK   50  A    between atoms: _114  and  _115
REMARK   51  A    between atoms: _114  and  _117
REMARK   52  A    between atoms: _117  and  _118
REMARK   53  A    between atoms: _118  and  _119
REMARK   54  A    between atoms: _122  and  _124
REMARK   55  A    between atoms: _124  and  _125
REMARK   56  A    between atoms: _124  and  _127
REMARK   57  A    between atoms: _127  and  _128
REMARK   58  A    between atoms: _131  and  _133
REMARK   59  A    between atoms: _133  and  _134
REMARK   60  A    between atoms: _133  and  _136
REMARK   61  A    between atoms: _139  and  _141
REMARK   62  A    between atoms: _141  and  _142
REMARK   63  A    between atoms: _141  and  _144
REMARK   64  A    between atoms: _144  and  _145
REMARK   65  A    between atoms: _145  and  _146
REMARK   66  A    between atoms: _148  and  _150
REMARK   67  A    between atoms: _150  and  _151
REMARK   68  A    between atoms: _150  and  _153
REMARK   69  A    between atoms: _153  and  _154
REMARK   70  A    between atoms: _164  and  _166
REMARK   71  A    between atoms: _166  and  _167
REMARK   72  A    between atoms: _166  and  _169
REMARK   73  A    between atoms: _169  and  _170
REMARK   74  A    between atoms: _173  and  _175
REMARK   75  A    between atoms: _175  and  _176
REMARK   76  A    between atoms: _175  and  _178
REMARK   77  A    between atoms: _178  and  _179
REMARK   78  A    between atoms: _179  and  _180
REMARK   79  A    between atoms: _183  and  _185
REMARK   80  A    between atoms: _185  and  _186
REMARK   81  A    between atoms: _185  and  _188
REMARK   82  A    between atoms: _188  and  _189
REMARK   83  A    between atoms: _192  and  _194
REMARK   84  A    between atoms: _194  and  _195
REMARK   85  A    between atoms: _194  and  _197
REMARK   86  A    between atoms: _197  and  _198
REMARK   87  A    between atoms: _201  and  _203
REMARK   88  A    between atoms: _203  and  _204
REMARK   89  A    between atoms: _203  and  _206
REMARK   90  A    between atoms: _206  and  _207
REMARK   91  A    between atoms: _207  and  _208
REMARK   92  A    between atoms: _210  and  _212
REMARK   93  A    between atoms: _212  and  _213
REMARK   94  A    between atoms: _212  and  _215
REMARK   95  A    between atoms: _215  and  _216
REMARK   96  A    between atoms: _219  and  _221
REMARK   97  A    between atoms: _221  and  _222
REMARK   98  A    between atoms: _224  and  _226
REMARK   99  A    between atoms: _226  and  _227
REMARK  100  A    between atoms: _226  and  _229
REMARK  101  A    between atoms: _229  and  _230
REMARK  102  A    between atoms: _233  and  _235
REMARK  103  A    between atoms: _235  and  _236
REMARK  104  A    between atoms: _235  and  _238
REMARK  105  A    between atoms: _241  and  _243
REMARK  106  A    between atoms: _243  and  _244
REMARK  107  A    between atoms: _243  and  _246
REMARK  108  A    between atoms: _246  and  _247
REMARK  109  A    between atoms: _247  and  _248
REMARK  110  A    between atoms: _248  and  _249
REMARK  111  A    between atoms: _258  and  _260
REMARK  112  A    between atoms: _260  and  _261
REMARK  113  A    between atoms: _260  and  _263
REMARK  114  A    between atoms: _263  and  _264
REMARK  115  A    between atoms: _266  and  _268
REMARK  116  A    between atoms: _268  and  _269
REMARK  117  A    between atoms: _268  and  _271
REMARK  118  A    between atoms: _271  and  _272
REMARK  119  A    between atoms: _275  and  _277
REMARK  120  A    between atoms: _277  and  _278
REMARK  121  A    between atoms: _277  and  _280
REMARK  122  A    between atoms: _280  and  _281
REMARK  123  A    between atoms: _284  and  _286
REMARK  124  A    between atoms: _286  and  _287
REMARK  125  A    between atoms: _286  and  _289
REMARK  126  A    between atoms: _289  and  _290
REMARK  127  A    between atoms: _296  and  _298
REMARK  128  A    between atoms: _298  and  _299
REMARK  129  A    between atoms: _302  and  _304
REMARK  130  A    between atoms: _304  and  _305
REMARK  131  A    between atoms: _304  and  _307
REMARK  132  A    between atoms: _307  and  _308
REMARK  133  A    between atoms: _311  and  _313
REMARK  134  A    between atoms: _313  and  _314
REMARK  135  A    between atoms: _316  and  _318
REMARK  136  A    between atoms: _318  and  _319
REMARK  137  A    between atoms: _318  and  _321
REMARK  138  A    between atoms: _324  and  _326
REMARK  139  A    between atoms: _326  and  _327
REMARK  140  A    between atoms: _326  and  _329
REMARK  141  A    between atoms: _329  and  _330
REMARK  142  A    between atoms: _330  and  _331
REMARK  143  A    between atoms: _334  and  _336
REMARK  144  A    between atoms: _336  and  _337
REMARK  145  A    between atoms: _339  and  _341
REMARK  146  A    between atoms: _341  and  _342
REMARK  147  A    between atoms: _341  and  _344
REMARK  148  A    between atoms: _344  and  _345
REMARK  149  A    between atoms: _345  and  _346
REMARK  150  A    between atoms: _348  and  _350
REMARK  151  A    between atoms: _350  and  _351
REMARK  152  A    between atoms: _350  and  _353
REMARK  153  A    between atoms: _356  and  _358
REMARK  154  A    between atoms: _358  and  _359
REMARK  155  A    between atoms: _358  and  _361
REMARK  156  A    between atoms: _361  and  _362
REMARK  157  A    between atoms: _362  and  _363
REMARK  158  A    between atoms: _366  and  _368
REMARK  159  A    between atoms: _368  and  _369
REMARK  160  A    between atoms: _368  and  _371
REMARK  161  A    between atoms: _371  and  _372
REMARK  162  A    between atoms: _375  and  _377
REMARK  163  A    between atoms: _377  and  _378
REMARK  164  A    between atoms: _377  and  _380
REMARK  165  A    between atoms: _380  and  _381
REMARK  166  A    between atoms: _387  and  _389
REMARK  167  A    between atoms: _389  and  _390
REMARK  168  A    between atoms: _389  and  _392
REMARK  169  A    between atoms: _392  and  _393
REMARK  170  A    between atoms: _396  and  _398
REMARK  171  A    between atoms: _398  and  _399
REMARK  172  A    between atoms: _398  and  _401
REMARK  173  A    between atoms: _401  and  _402
REMARK  174  A    between atoms: _402  and  _403
REMARK  175  A    between atoms: _405  and  _407
REMARK  176  A    between atoms: _407  and  _408
REMARK  177  A    between atoms: _407  and  _410
REMARK  178  A    between atoms: _410  and  _411
REMARK  179  A    between atoms: _413  and  _415
REMARK  180  A    between atoms: _415  and  _416
REMARK  181  A    between atoms: _415  and  _418
REMARK  182  A    between atoms: _418  and  _419
REMARK  183  A    between atoms: _424  and  _426
REMARK  184  A    between atoms: _426  and  _427
REMARK  185  A    between atoms: _426  and  _429
REMARK  186  A    between atoms: _429  and  _430
REMARK  187  A    between atoms: _430  and  _431
REMARK  188  A    between atoms: _431  and  _432
REMARK  189  A    between atoms: _432  and  _433
REMARK  190  A    between atoms: _437  and  _439
REMARK  191  A    between atoms: _439  and  _440
REMARK  192  A    between atoms: _442  and  _444
REMARK  193  A    between atoms: _444  and  _445
REMARK  194  A    between atoms: _444  and  _447
REMARK  195  A    between atoms: _447  and  _448
REMARK  196  A    between atoms: _448  and  _449
REMARK  197  A    between atoms: _451  and  _453
REMARK  198  A    between atoms: _453  and  _454
REMARK  199  A    between atoms: _453  and  _456
REMARK  200  A    between atoms: _456  and  _457
REMARK  201  A    between atoms: _457  and  _458
REMARK  202  A    between atoms: _461  and  _463
REMARK  203  A    between atoms: _463  and  _464
REMARK  204  A    between atoms: _463  and  _466
REMARK  205  A    between atoms: _466  and  _467
REMARK  206  A    between atoms: _472  and  _474
REMARK  207  A    between atoms: _474  and  _475
REMARK  208  A    between atoms: _474  and  _477
REMARK  209  A    between atoms: _477  and  _478
REMARK  210  A    between atoms: _481  and  _483
REMARK  211  A    between atoms: _483  and  _484
REMARK  212  A    between atoms: _483  and  _486
REMARK  213  A    between atoms: _486  and  _487
REMARK  214  A    between atoms: _492  and  _493
REMARK  215  A    between atoms: _495  and  _497
REMARK  216  A    between atoms: _497  and  _498
REMARK  217  A    between atoms: _497  and  _500
REMARK  218  A    between atoms: _500  and  _501
REMARK  219  A    between atoms: _503  and  _505
REMARK  220  A    between atoms: _505  and  _506
REMARK  221  A    between atoms: _505  and  _508
REMARK  222  A    between atoms: _508  and  _509
REMARK  223  A    between atoms: _509  and  _510
REMARK  224  A    between atoms: _512  and  _514
REMARK  225  A    between atoms: _514  and  _515
REMARK  226  A    between atoms: _514  and  _517
REMARK  227  A    between atoms: _517  and  _518
REMARK  228  A    between atoms: _518  and  _519
REMARK  229  A    between atoms: _519  and  _520
REMARK  230  A    between atoms: _520  and  _521
REMARK  231  A    between atoms: _525  and  _527
REMARK  232  A    between atoms: _527  and  _528
REMARK  233  A    between atoms: _527  and  _530
REMARK  234  A    between atoms: _530  and  _531
REMARK  235  A    between atoms: _531  and  _532
REMARK  236  A    between atoms: _532  and  _533
REMARK  237  A    between atoms: _533  and  _534
REMARK  238  A    between atoms: _538  and  _540
REMARK  239  A    between atoms: _540  and  _541
REMARK  240  A    between atoms: _540  and  _543
REMARK  241  A    between atoms: _547  and  _548
REMARK  242  A    between atoms: _553  and  _555
REMARK  243  A    between atoms: _555  and  _556
REMARK  244  A    between atoms: _555  and  _558
REMARK  245  A    between atoms: _558  and  _559
REMARK  246  A    between atoms: _562  and  _564
REMARK  247  A    between atoms: _564  and  _565
REMARK  248  A    between atoms: _564  and  _567
REMARK  249  A    between atoms: _567  and  _568
REMARK  250  A    between atoms: _571  and  _573
REMARK  251  A    between atoms: _573  and  _574
REMARK  252  A    between atoms: _573  and  _576
REMARK  253  A    between atoms: _576  and  _577
REMARK  254  A    between atoms: _580  and  _582
REMARK  255  A    between atoms: _582  and  _583
REMARK  256  A    between atoms: _582  and  _585
REMARK  257  A    between atoms: _585  and  _586
REMARK  258  A    between atoms: _586  and  _587
REMARK                            x       y       z     vdW  Elec       q    Type
REMARK                         _______ _______ _______ _____ _____    ______ ____
ROOT
ATOM      1  O   HOH     1      20.689   0.478  21.175  0.00  0.00    +0.000 OA
ENDROOT
TORSDOF 0
REMARK  Name = ../refined-set-2016/2ayr/2ayr_pocket.pdb
REMARK  258 active torsions:
REMARK  status: ('A' for Active; 'I' for Inactive)
REMARK    1  A    between atoms: _1  and  _3
REMARK    2  A    between atoms: _3  and  _4
REMARK    3  A    between atoms: _3  and  _6
REMARK    4  A    between atoms: _6  and  _7
REMARK    5  A    between atoms: _10  and  _12
REMARK    6  A    between atoms: _12  and  _13
REMARK    7  A    between atoms: _12  and  _15
REMARK    8  A    between atoms: _15  and  _16
REMARK    9  A    between atoms: _16  and  _17
REMARK   10  A    between atoms: _19  and  _21
REMARK   11  A    between atoms: _21  and  _22
REMARK   12  A    between atoms: _21  and  _24
REMARK   13  A    between atoms: _24  and  _25
REMARK   14  A    between atoms: _25  and  _26
REMARK   15  A    between atoms: _28  and  _30
REMARK   16  A    between atoms: _30  and  _31
REMARK   17  A    between atoms: _33  and  _35
REMARK   18  A    between atoms: _35  and  _36
REMARK   19  A    between atoms: _35  and  _38
REMARK   20  A    between atoms: _38  and  _39
REMARK   21  A    between atoms: _42  and  _44
REMARK   22  A    between atoms: _44  and  _45
REMARK   23  A    between atoms: _44  and  _47
REMARK   24  A    between atoms: _47  and  _48
REMARK   25  A    between atoms: _51  and  _53
REMARK   26  A    between atoms: _53  and  _54
REMARK   27  A    between atoms: _53  and  _56
REMARK   28  A    between atoms: _56  and  _57
REMARK   29  A    between atoms: _60  and  _62
REMARK   30  A    between atoms: _62  and  _63
REMARK   31  A    between atoms: _62  and  _65
REMARK   32  A    between atoms: _65  and  _66
REMARK   33  A    between atoms: _71  and  _73
REMARK   34  A    between atoms: _73  and  _74
REMARK   35  A    between atoms: _73  and  _76
REMARK   36  A    between atoms: _76  and  _77
REMARK   37  A    between atoms: _80  and  _82
REMARK   38  A    between atoms: _82  and  _83
REMARK   39  A    between atoms: _86  and  _88
REMARK   40  A    between atoms: _88  and  _89
REMARK   41  A    between atoms: _88  and  _91
REMARK   42  A    between atoms: _91  and  _92
REMARK   43  A    between atoms: _95  and  _97
REMARK   44  A    between atoms: _97  and  _98
REMARK   45  A    between atoms: _97  and  _100
REMARK   46  A    between atoms: _100  and  _101
REMARK   47  A    between atoms: _101  and  _102
REMARK   48  A    between atoms: _102  and  _103
REMARK   49  A    between atoms: _112  and  _114
REMARK   50  A    between atoms: _114  and  _115
REMARK   51  A    between atoms: _114  and  _117
REMARK   52  A    between atoms: _117  and  _118
REMARK   53  A    between atoms: _118  and  _119
REMARK   54  A    between atoms: _122  and  _124
REMARK   55  A    between atoms: _124  and  _125
REMARK   56  A    between atoms: _124  and  _127
REMARK   57  A    between atoms: _127  and  _128
REMARK   58  A    between atoms: _131  and  _133
REMARK   59  A    between atoms: _133  and  _134
REMARK   60  A    between atoms: _133  and  _136
REMARK   61  A    between atoms: _139  and  _141
REMARK   62  A    between atoms: _141  and  _142
REMARK   63  A    between atoms: _141  and  _144
REMARK   64  A    between atoms: _144  and  _145
REMARK   65  A    between atoms: _145  and  _146
REMARK   66  A    between atoms: _148  and  _150
REMARK   67  A    between atoms: _150  and  _151
REMARK   68  A    between atoms: _150  and  _153
REMARK   69  A    between atoms: _153  and  _154
REMARK   70  A    between atoms: _164  and  _166
REMARK   71  A    between atoms: _166  and  _167
REMARK   72  A    between atoms: _166  and  _169
REMARK   73  A    between atoms: _169  and  _170
REMARK   74  A    between atoms: _173  and  _175
REMARK   75  A    between atoms: _175  and  _176
REMARK   76  A    between atoms: _175  and  _178
REMARK   77  A    between atoms: _178  and  _179
REMARK   78  A    between atoms: _179  and  _180
REMARK   79  A    between atoms: _183  and  _185
REMARK   80  A    between atoms: _185  and  _186
REMARK   81  A    between atoms: _185  and  _188
REMARK   82  A    between atoms: _188  and  _189
REMARK   83  A    between atoms: _192  and  _194
REMARK   84  A    between atoms: _194  and  _195
REMARK   85  A    between atoms: _194  and  _197
REMARK   86  A    between atoms: _197  and  _198
REMARK   87  A    between atoms: _201  and  _203
REMARK   88  A    between atoms: _203  and  _204
REMARK   89  A    between atoms: _203  and  _206
REMARK   90  A    between atoms: _206  and  _207
REMARK   91  A    between atoms: _207  and  _208
REMARK   92  A    between atoms: _210  and  _212
REMARK   93  A    between atoms: _212  and  _213
REMARK   94  A    between atoms: _212  and  _215
REMARK   95  A    between atoms: _215  and  _216
REMARK   96  A    between atoms: _219  and  _221
REMARK   97  A    between atoms: _221  and  _222
REMARK   98  A    between atoms: _224  and  _226
REMARK   99  A    between atoms: _226  and  _227
REMARK  100  A    between atoms: _226  and  _229
REMARK  101  A    between atoms: _229  and  _230
REMARK  102  A    between atoms: _233  and  _235
REMARK  103  A    between atoms: _235  and  _236
REMARK  104  A    between atoms: _235  and  _238
REMARK  105  A    between atoms: _241  and  _243
REMARK  106  A    between atoms: _243  and  _244
REMARK  107  A    between atoms: _243  and  _246
REMARK  108  A    between atoms: _246  and  _247
REMARK  109  A    between atoms: _247  and  _248
REMARK  110  A    between atoms: _248  and  _249
REMARK  111  A    between atoms: _258  and  _260
REMARK  112  A    between atoms: _260  and  _261
REMARK  113  A    between atoms: _260  and  _263
REMARK  114  A    between atoms: _263  and  _264
REMARK  115  A    between atoms: _266  and  _268
REMARK  116  A    between atoms: _268  and  _269
REMARK  117  A    between atoms: _268  and  _271
REMARK  118  A    between atoms: _271  and  _272
REMARK  119  A    between atoms: _275  and  _277
REMARK  120  A    between atoms: _277  and  _278
REMARK  121  A    between atoms: _277  and  _280
REMARK  122  A    between atoms: _280  and  _281
REMARK  123  A    between atoms: _284  and  _286
REMARK  124  A    between atoms: _286  and  _287
REMARK  125  A    between atoms: _286  and  _289
REMARK  126  A    between atoms: _289  and  _290
REMARK  127  A    between atoms: _296  and  _298
REMARK  128  A    between atoms: _298  and  _299
REMARK  129  A    between atoms: _302  and  _304
REMARK  130  A    between atoms: _304  and  _305
REMARK  131  A    between atoms: _304  and  _307
REMARK  132  A    between atoms: _307  and  _308
REMARK  133  A    between atoms: _311  and  _313
REMARK  134  A    between atoms: _313  and  _314
REMARK  135  A    between atoms: _316  and  _318
REMARK  136  A    between atoms: _318  and  _319
REMARK  137  A    between atoms: _318  and  _321
REMARK  138  A    between atoms: _324  and  _326
REMARK  139  A    between atoms: _326  and  _327
REMARK  140  A    between atoms: _326  and  _329
REMARK  141  A    between atoms: _329  and  _330
REMARK  142  A    between atoms: _330  and  _331
REMARK  143  A    between atoms: _334  and  _336
REMARK  144  A    between atoms: _336  and  _337
REMARK  145  A    between atoms: _339  and  _341
REMARK  146  A    between atoms: _341  and  _342
REMARK  147  A    between atoms: _341  and  _344
REMARK  148  A    between atoms: _344  and  _345
REMARK  149  A    between atoms: _345  and  _346
REMARK  150  A    between atoms: _348  and  _350
REMARK  151  A    between atoms: _350  and  _351
REMARK  152  A    between atoms: _350  and  _353
REMARK  153  A    between atoms: _356  and  _358
REMARK  154  A    between atoms: _358  and  _359
REMARK  155  A    between atoms: _358  and  _361
REMARK  156  A    between atoms: _361  and  _362
REMARK  157  A    between atoms: _362  and  _363
REMARK  158  A    between atoms: _366  and  _368
REMARK  159  A    between atoms: _368  and  _369
REMARK  160  A    between atoms: _368  and  _371
REMARK  161  A    between atoms: _371  and  _372
REMARK  162  A    between atoms: _375  and  _377
REMARK  163  A    between atoms: _377  and  _378
REMARK  164  A    between atoms: _377  and  _380
REMARK  165  A    between atoms: _380  and  _381
REMARK  166  A    between atoms: _387  and  _389
REMARK  167  A    between atoms: _389  and  _390
REMARK  168  A    between atoms: _389  and  _392
REMARK  169  A    between atoms: _392  and  _393
REMARK  170  A    between atoms: _396  and  _398
REMARK  171  A    between atoms: _398  and  _399
REMARK  172  A    between atoms: _398  and  _401
REMARK  173  A    between atoms: _401  and  _402
REMARK  174  A    between atoms: _402  and  _403
REMARK  175  A    between atoms: _405  and  _407
REMARK  176  A    between atoms: _407  and  _408
REMARK  177  A    between atoms: _407  and  _410
REMARK  178  A    between atoms: _410  and  _411
REMARK  179  A    between atoms: _413  and  _415
REMARK  180  A    between atoms: _415  and  _416
REMARK  181  A    between atoms: _415  and  _418
REMARK  182  A    between atoms: _418  and  _419
REMARK  183  A    between atoms: _424  and  _426
REMARK  184  A    between atoms: _426  and  _427
REMARK  185  A    between atoms: _426  and  _429
REMARK  186  A    between atoms: _429  and  _430
REMARK  187  A    between atoms: _430  and  _431
REMARK  188  A    between atoms: _431  and  _432
REMARK  189  A    between atoms: _432  and  _433
REMARK  190  A    between atoms: _437  and  _439
REMARK  191  A    between atoms: _439  and  _440
REMARK  192  A    between atoms: _442  and  _444
REMARK  193  A    between atoms: _444  and  _445
REMARK  194  A    between atoms: _444  and  _447
REMARK  195  A    between atoms: _447  and  _448
REMARK  196  A    between atoms: _448  and  _449
REMARK  197  A    between atoms: _451  and  _453
REMARK  198  A    between atoms: _453  and  _454
REMARK  199  A    between atoms: _453  and  _456
REMARK  200  A    between atoms: _456  and  _457
REMARK  201  A    between atoms: _457  and  _458
REMARK  202  A    between atoms: _461  and  _463
REMARK  203  A    between atoms: _463  and  _464
REMARK  204  A    between atoms: _463  and  _466
REMARK  205  A    between atoms: _466  and  _467
REMARK  206  A    between atoms: _472  and  _474
REMARK  207  A    between atoms: _474  and  _475
REMARK  208  A    between atoms: _474  and  _477
REMARK  209  A    between atoms: _477  and  _478
REMARK  210  A    between atoms: _481  and  _483
REMARK  211  A    between atoms: _483  and  _484
REMARK  212  A    between atoms: _483  and  _486
REMARK  213  A    between atoms: _486  and  _487
REMARK  214  A    between atoms: _492  and  _493
REMARK  215  A    between atoms: _495  and  _497
REMARK  216  A    between atoms: _497  and  _498
REMARK  217  A    between atoms: _497  and  _500
REMARK  218  A    between atoms: _500  and  _501
REMARK  219  A    between atoms: _503  and  _505
REMARK  220  A    between atoms: _505  and  _506
REMARK  221  A    between atoms: _505  and  _508
REMARK  222  A    between atoms: _508  and  _509
REMARK  223  A    between atoms: _509  and  _510
REMARK  224  A    between atoms: _512  and  _514
REMARK  225  A    between atoms: _514  and  _515
REMARK  226  A    between atoms: _514  and  _517
REMARK  227  A    between atoms: _517  and  _518
REMARK  228  A    between atoms: _518  and  _519
REMARK  229  A    between atoms: _519  and  _520
REMARK  230  A    between atoms: _520  and  _521
REMARK  231  A    between atoms: _525  and  _527
REMARK  232  A    between atoms: _527  and  _528
REMARK  233  A    between atoms: _527  and  _530
REMARK  234  A    between atoms: _530  and  _531
REMARK  235  A    between atoms: _531  and  _532
REMARK  236  A    between atoms: _532  and  _533
REMARK  237  A    between atoms: _533  and  _534
REMARK  238  A    between atoms: _538  and  _540
REMARK  239  A    between atoms: _540  and  _541
REMARK  240  A    between atoms: _540  and  _543
REMARK  241  A    between atoms: _547  and  _548
REMARK  242  A    between atoms: _553  and  _555
REMARK  243  A    between atoms: _555  and  _556
REMARK  244  A    between atoms: _555  and  _558
REMARK  245  A    between atoms: _558  and  _559
REMARK  246  A    between atoms: _562  and  _564
REMARK  247  A    between atoms: _564  and  _565
REMARK  248  A    between atoms: _564  and  _567
REMARK  249  A    between atoms: _567  and  _568
REMARK  250  A    between atoms: _571  and  _573
REMARK  251  A    between atoms: _573  and  _574
REMARK  252  A    between atoms: _573  and  _576
REMARK  253  A    between atoms: _576  and  _577
REMARK  254  A    between atoms: _580  and  _582
REMARK  255  A    between atoms: _582  and  _583
REMARK  256  A    between atoms: _582  and  _585
REMARK  257  A    between atoms: _585  and  _586
REMARK  258  A    between atoms: _586  and  _587
REMARK                            x       y       z     vdW  Elec       q    Type
REMARK                         _______ _______ _______ _____ _____    ______ ____
ROOT
ATOM      1  O   HOH     1      17.801   0.292  26.991  0.00  0.00    +0.000 OA
ENDROOT
TORSDOF 0
