REMARK  Name = ../refined-set-2016/4llx/4llx_pocket.pdb
REMARK  93 active torsions:
REMARK  status: ('A' for Active; 'I' for Inactive)
REMARK    1  A    between atoms: _1  and  _3
REMARK    2  A    between atoms: _3  and  _4
REMARK    3  A    between atoms: _3  and  _6
REMARK    4  A    between atoms: _6  and  _7
REMARK    5  A    between atoms: _12  and  _13
REMARK    6  A    between atoms: _15  and  _17
REMARK    7  A    between atoms: _17  and  _18
REMARK    8  A    between atoms: _17  and  _20
REMARK    9  A    between atoms: _20  and  _21
REMARK   10  A    between atoms: _26  and  _28
REMARK   11  A    between atoms: _28  and  _29
REMARK   12  A    between atoms: _28  and  _31
REMARK   13  A    between atoms: _31  and  _32
REMARK   14  A    between atoms: _36  and  NI_233
REMARK   15  A    between atoms: _37  and  _39
REMARK   16  A    between atoms: _39  and  _40
REMARK   17  A    between atoms: _39  and  _42
REMARK   18  A    between atoms: _42  and  _43
REMARK   19  A    between atoms: _46  and  _48
REMARK   20  A    between atoms: _48  and  _49
REMARK   21  A    between atoms: _48  and  _51
REMARK   22  A    between atoms: _51  and  _52
REMARK   23  A    between atoms: _52  and  _54
REMARK   24  A    between atoms: _54  and  NI_233
REMARK   25  A    between atoms: _55  and  _57
REMARK   26  A    between atoms: _57  and  _58
REMARK   27  A    between atoms: _57  and  _60
REMARK   28  A    between atoms: _60  and  _61
REMARK   29  A    between atoms: _64  and  _66
REMARK   30  A    between atoms: _66  and  _67
REMARK   31  A    between atoms: _66  and  _69
REMARK   32  A    between atoms: _71  and  _73
REMARK   33  A    between atoms: _73  and  _74
REMARK   34  A    between atoms: _73  and  _76
REMARK   35  A    between atoms: _76  and  _77
REMARK   36  A    between atoms: _79  and  _81
REMARK   37  A    between atoms: _81  and  _82
REMARK   38  A    between atoms: _81  and  _84
REMARK   39  A    between atoms: _87  and  _89
REMARK   40  A    between atoms: _89  and  _90
REMARK   41  A    between atoms: _89  and  _92
REMARK   42  A    between atoms: _92  and  _93
REMARK   43  A    between atoms: _96  and  _98
REMARK   44  A    between atoms: _98  and  _99
REMARK   45  A    between atoms: _98  and  _101
REMARK   46  A    between atoms: _101  and  _102
REMARK   47  A    between atoms: _105  and  _107
REMARK   48  A    between atoms: _107  and  _108
REMARK   49  A    between atoms: _111  and  _113
REMARK   50  A    between atoms: _113  and  _114
REMARK   51  A    between atoms: _113  and  _116
REMARK   52  A    between atoms: _116  and  _117
REMARK   53  A    between atoms: _120  and  _122
REMARK   54  A    between atoms: _122  and  _123
REMARK   55  A    between atoms: _122  and  _125
REMARK   56  A    between atoms: _125  and  _126
REMARK   57  A    between atoms: _131  and  _132
REMARK   58  A    between atoms: _134  and  _136
REMARK   59  A    between atoms: _136  and  _137
REMARK   60  A    between atoms: _136  and  _139
REMARK   61  A    between atoms: _139  and  _140
REMARK   62  A    between atoms: _146  and  _148
REMARK   63  A    between atoms: _148  and  _149
REMARK   64  A    between atoms: _148  and  _151
REMARK   65  A    between atoms: _151  and  _152
REMARK   66  A    between atoms: _152  and  _153
REMARK   67  A    between atoms: _155  and  _157
REMARK   68  A    between atoms: _157  and  _158
REMARK   69  A    between atoms: _160  and  _162
REMARK   70  A    between atoms: _162  and  _163
REMARK   71  A    between atoms: _162  and  _165
REMARK   72  A    between atoms: _165  and  _166
REMARK   73  A    between atoms: _166  and  _167
REMARK   74  A    between atoms: _172  and  _174
REMARK   75  A    between atoms: _174  and  _175
REMARK   76  A    between atoms: _177  and  _179
REMARK   77  A    between atoms: _179  and  _180
REMARK   78  A    between atoms: _179  and  _182
REMARK   79  A    between atoms: _182  and  _183
REMARK   80  A    between atoms: _189  and  _191
REMARK   81  A    between atoms: _191  and  _192
REMARK   82  A    between atoms: _191  and  _194
REMARK   83  A    between atoms: _194  and  _195
REMARK   84  A    between atoms: _200  and  _201
REMARK   85  A    between atoms: _203  and  _205
REMARK   86  A    between atoms: _205  and  _206
REMARK   87  A    between atoms: _205  and  _208
REMARK   88  A    between atoms: _211  and  _213
REMARK   89  A    between atoms: _213  and  _214
REMARK   90  A    between atoms: _217  and  _219
REMARK   91  A    between atoms: _219  and  _220
REMARK   92  A    between atoms: _219  and  _222
REMARK   93  A    between atoms: _222  and  _223
REMARK                            x       y       z     vdW  Elec       q    Type
REMARK                         _______ _______ _______ _____ _____    ______ ____
ROOT
ATOM      1  C   TYR A   1      13.867  12.467  47.759  0.00  0.00    +0.239 C 
ATOM      2  O   TYR A   1      13.540  12.143  48.911  0.00  0.00    -0.274 OA
ATOM      3  N   HIS A   2      14.339  11.575  46.890  0.00  0.00    -0.298 N 
ATOM      4  H   HIS A   2      14.652  11.882  45.947  0.00  0.00    +0.150 HD
ENDROOT
BRANCH   1   5
ATOM      5  CA  TYR A   1      13.730  13.921  47.285  0.00  0.00    +0.149 C 
BRANCH   5   6
ATOM      6  N   TYR A   1      14.954  14.526  46.686  0.00  0.00    -0.238 NA
ATOM      7  H   TYR A   1      15.418  14.069  45.875  0.00  0.00    +0.142 HD
ENDBRANCH   5   6
BRANCH   5   8
ATOM      8  CB  TYR A   1      12.547  14.070  46.339  0.00  0.00    +0.053 C 
BRANCH   8   9
ATOM      9  CG  TYR A   1      11.284  13.424  46.861  0.00  0.00    -0.020 A 
ATOM     10  CD2 TYR A   1      10.586  13.990  47.928  0.00  0.00    -0.001 A 
ATOM     11  CE2 TYR A   1       9.429  13.393  48.440  0.00  0.00    +0.036 A 
ATOM     12  CZ  TYR A   1       8.953  12.219  47.884  0.00  0.00    +0.134 A 
ATOM     13  CE1 TYR A   1       9.624  11.621  46.824  0.00  0.00    +0.036 A 
ATOM     14  CD1 TYR A   1      10.809  12.242  46.310  0.00  0.00    -0.001 A 
BRANCH  12  15
ATOM     15  OH  TYR A   1       7.780  11.666  48.390  0.00  0.00    -0.506 OA
ATOM     16  HH  TYR A   1       7.448  12.225  49.136  0.00  0.00    +0.292 HD
ENDBRANCH  12  15
ENDBRANCH   8   9
ENDBRANCH   5   8
ENDBRANCH   1   5
BRANCH   3  17
ATOM     17  CA  HIS A   2      14.417  10.141  47.270  0.00  0.00    +0.143 C 
BRANCH  17  18
ATOM     18  C   HIS A   2      15.606   9.878  48.161  0.00  0.00    +0.227 C 
ATOM     19  O   HIS A   2      16.564   9.225  47.783  0.00  0.00    -0.286 OA
ENDBRANCH  17  18
BRANCH  17  20
ATOM     20  CB  HIS A   2      14.374   9.248  46.045  0.00  0.00    +0.075 C 
BRANCH  20  21
ATOM     21  CG  HIS A   2      13.054   9.264  45.336  0.00  0.00    +0.082 A 
ATOM     22  CD2 HIS A   2      11.875   8.645  45.606  0.00  0.00    +0.115 A 
ATOM     23  NE2 HIS A   2      10.982   9.033  44.639  0.00  0.00    -0.221 NA
ATOM     24  CE1 HIS A   2      11.586   9.845  43.796  0.00  0.00    +0.199 A 
ATOM     25  ND1 HIS A   2      12.831  10.027  44.210  0.00  0.00    -0.227 NA
ENDBRANCH  20  21
ENDBRANCH  17  20
ENDBRANCH   3  17
TORSDOF 9
REMARK  Name = ../refined-set-2016/4llx/4llx_pocket.pdb
REMARK  93 active torsions:
REMARK  status: ('A' for Active; 'I' for Inactive)
REMARK    1  A    between atoms: _1  and  _3
REMARK    2  A    between atoms: _3  and  _4
REMARK    3  A    between atoms: _3  and  _6
REMARK    4  A    between atoms: _6  and  _7
REMARK    5  A    between atoms: _12  and  _13
REMARK    6  A    between atoms: _15  and  _17
REMARK    7  A    between atoms: _17  and  _18
REMARK    8  A    between atoms: _17  and  _20
REMARK    9  A    between atoms: _20  and  _21
REMARK   10  A    between atoms: _26  and  _28
REMARK   11  A    between atoms: _28  and  _29
REMARK   12  A    between atoms: _28  and  _31
REMARK   13  A    between atoms: _31  and  _32
REMARK   14  A    between atoms: _36  and  NI_233
REMARK   15  A    between atoms: _37  and  _39
REMARK   16  A    between atoms: _39  and  _40
REMARK   17  A    between atoms: _39  and  _42
REMARK   18  A    between atoms: _42  and  _43
REMARK   19  A    between atoms: _46  and  _48
REMARK   20  A    between atoms: _48  and  _49
REMARK   21  A    between atoms: _48  and  _51
REMARK   22  A    between atoms: _51  and  _52
REMARK   23  A    between atoms: _52  and  _54
REMARK   24  A    between atoms: _54  and  NI_233
REMARK   25  A    between atoms: _55  and  _57
REMARK   26  A    between atoms: _57  and  _58
REMARK   27  A    between atoms: _57  and  _60
REMARK   28  A    between atoms: _60  and  _61
REMARK   29  A    between atoms: _64  and  _66
REMARK   30  A    between atoms: _66  and  _67
REMARK   31  A    between atoms: _66  and  _69
REMARK   32  A    between atoms: _71  and  _73
REMARK   33  A    between atoms: _73  and  _74
REMARK   34  A    between atoms: _73  and  _76
REMARK   35  A    between atoms: _76  and  _77
REMARK   36  A    between atoms: _79  and  _81
REMARK   37  A    between atoms: _81  and  _82
REMARK   38  A    between atoms: _81  and  _84
REMARK   39  A    between atoms: _87  and  _89
REMARK   40  A    between atoms: _89  and  _90
REMARK   41  A    between atoms: _89  and  _92
REMARK   42  A    between atoms: _92  and  _93
REMARK   43  A    between atoms: _96  and  _98
REMARK   44  A    between atoms: _98  and  _99
REMARK   45  A    between atoms: _98  and  _101
REMARK   46  A    between atoms: _101  and  _102
REMARK   47  A    between atoms: _105  and  _107
REMARK   48  A    between atoms: _107  and  _108
REMARK   49  A    between atoms: _111  and  _113
REMARK   50  A    between atoms: _113  and  _114
REMARK   51  A    between atoms: _113  and  _116
REMARK   52  A    between atoms: _116  and  _117
REMARK   53  A    between atoms: _120  and  _122
REMARK   54  A    between atoms: _122  and  _123
REMARK   55  A    between atoms: _122  and  _125
REMARK   56  A    between atoms: _125  and  _126
REMARK   57  A    between atoms: _131  and  _132
REMARK   58  A    between atoms: _134  and  _136
REMARK   59  A    between atoms: _136  and  _137
REMARK   60  A    between atoms: _136  and  _139
REMARK   61  A    between atoms: _139  and  _140
REMARK   62  A    between atoms: _146  and  _148
REMARK   63  A    between atoms: _148  and  _149
REMARK   64  A    between atoms: _148  and  _151
REMARK   65  A    between atoms: _151  and  _152
REMARK   66  A    between atoms: _152  and  _153
REMARK   67  A    between atoms: _155  and  _157
REMARK   68  A    between atoms: _157  and  _158
REMARK   69  A    between atoms: _160  and  _162
REMARK   70  A    between atoms: _162  and  _163
REMARK   71  A    between atoms: _162  and  _165
REMARK   72  A    between atoms: _165  and  _166
REMARK   73  A    between atoms: _166  and  _167
REMARK   74  A    between atoms: _172  and  _174
REMARK   75  A    between atoms: _174  and  _175
REMARK   76  A    between atoms: _177  and  _179
REMARK   77  A    between atoms: _179  and  _180
REMARK   78  A    between atoms: _179  and  _182
REMARK   79  A    between atoms: _182  and  _183
REMARK   80  A    between atoms: _189  and  _191
REMARK   81  A    between atoms: _191  and  _192
REMARK   82  A    between atoms: _191  and  _194
REMARK   83  A    between atoms: _194  and  _195
REMARK   84  A    between atoms: _200  and  _201
REMARK   85  A    between atoms: _203  and  _205
REMARK   86  A    between atoms: _205  and  _206
REMARK   87  A    between atoms: _205  and  _208
REMARK   88  A    between atoms: _211  and  _213
REMARK   89  A    between atoms: _213  and  _214
REMARK   90  A    between atoms: _217  and  _219
REMARK   91  A    between atoms: _219  and  _220
REMARK   92  A    between atoms: _219  and  _222
REMARK   93  A    between atoms: _222  and  _223
REMARK                            x       y       z     vdW  Elec       q    Type
REMARK                         _______ _______ _______ _____ _____    ______ ____
ROOT
ATOM      1  CA  LEU A   2       2.948   9.269  49.183  0.00  0.00    +0.000 C 
ENDROOT
BRANCH   1   2
ATOM      2  C   LEU A   2       2.541  10.239  50.305  0.00  0.00    +0.000 C 
ATOM      3  N   CYS A   3       2.889   9.931  51.563  0.00  0.00    +0.000 N 
ATOM      4  H   CYS A   3       3.580   9.171  51.723  0.00  0.00    +0.000 HD
ATOM      5  O   LEU A   2       1.916  11.256  49.993  0.00  0.00    +0.000 OA
BRANCH   3   6
ATOM      6  CA  CYS A   3       2.320  10.639  52.729  0.00  0.00    +0.000 C 
BRANCH   6   7
ATOM      7  C   CYS A   3       2.664  12.132  52.815  0.00  0.00    +0.000 C 
ATOM      8  O   CYS A   3       2.002  12.849  53.552  0.00  0.00    +0.000 OA
ATOM      9  N   SER A   4       3.718  12.615  52.102  0.00  0.00    +0.000 N 
ATOM     10  H   SER A   4       4.399  11.961  51.667  0.00  0.00    +0.000 HD
BRANCH   9  11
ATOM     11  CA  SER A   4       3.888  14.067  51.951  0.00  0.00    +0.000 C 
BRANCH  11  12
ATOM     12  C   SER A   4       2.588  14.786  51.711  0.00  0.00    +0.000 C 
ATOM     13  O   SER A   4       2.422  15.904  52.192  0.00  0.00    +0.000 OA
ATOM     14  N   VAL A   5       1.712  14.162  50.929  0.00  0.00    +0.000 N 
ATOM     15  H   VAL A   5       1.964  13.240  50.519  0.00  0.00    +0.000 HD
BRANCH  14  16
ATOM     16  CA  VAL A   5       0.397  14.745  50.630  0.00  0.00    +0.000 C 
BRANCH  16  17
ATOM     17  CB  VAL A   5      -0.245  14.166  49.318  0.00  0.00    +0.000 C 
ATOM     18  CG2 VAL A   5      -0.787  12.729  49.537  0.00  0.00    +0.000 C 
ATOM     19  CG1 VAL A   5       0.730  14.247  48.120  0.00  0.00    +0.000 C 
ENDBRANCH  16  17
BRANCH  16  20
ATOM     20  C   VAL A   5      -0.634  14.713  51.762  0.00  0.00    +0.000 C 
ATOM     21  O   VAL A   5      -1.764  15.225  51.569  0.00  0.00    +0.000 OA
ENDBRANCH  16  20
ENDBRANCH  14  16
ENDBRANCH  11  12
BRANCH  11  22
ATOM     22  CB  SER A   4       4.824  14.450  50.808  0.00  0.00    +0.000 C 
BRANCH  22  23
ATOM     23  OG  SER A   4       4.171  14.466  49.542  0.00  0.00    +0.000 OA
ATOM     24  H   SER A   4       3.808  13.566  49.348  0.00  0.00    +0.000 HD
ENDBRANCH  22  23
ENDBRANCH  11  22
ENDBRANCH   9  11
ENDBRANCH   6   7
BRANCH   6  25
ATOM     25  CB  CYS A   3       2.611   9.908  54.068  0.00  0.00    +0.000 C 
ATOM     26  SG  CYS A   3       4.299  10.074  54.661  0.00  0.00    +0.000 S 
ENDBRANCH   6  25
ENDBRANCH   3   6
ENDBRANCH   1   2
BRANCH   1  28
ATOM     27  C   UNK A   1       4.773   7.815  49.735  0.00  0.00    +0.000 C 
ATOM     28  N   LEU A   2       3.466   7.996  49.611  0.00  0.00    +0.000 N 
ATOM     29  H   LEU A   2       2.812   7.216  49.824  0.00  0.00    +0.000 HD
ATOM     30  O   UNK A   1       5.550   8.734  49.585  0.00  0.00    +0.000 OA
BRANCH  27  31
ATOM     31  C   UNK A   1       5.267   6.426  50.127  0.00  0.00    +0.000 C 
BRANCH  31  32
ATOM     32  N   UNK A   1       4.359   5.840  51.133  0.00  0.00    +0.000 NA
ATOM     33  H   UNK A   1       3.896   4.935  50.912  0.00  0.00    +0.000 HD
ENDBRANCH  31  32
BRANCH  31  34
ATOM     34  C   UNK A   1       5.365   5.519  48.855  0.00  0.00    +0.000 C 
BRANCH  34  35
ATOM     35  C   UNK A   1       6.720   5.636  48.109  0.00  0.00    +0.000 C 
ATOM     36  O   UNK A   1       6.912   4.990  47.073  0.00  0.00    +0.000 OA
BRANCH  35  37
ATOM     37  O   UNK A   1       7.562   6.406  48.527  0.00  0.00    +0.000 OA
BRANCH  37  38
ATOM     38 NI   UNK A   1       9.585   6.304  48.043  0.00  0.00    +0.000 Ni
ATOM     39  O   UNK A   1       9.331   5.286  46.618  0.00  0.00    +0.000 OA
BRANCH  38  43
ATOM     40  C   UNK A   1      11.062   9.550  50.531  0.00  0.00    +0.000 A 
ATOM     41  N   UNK A   1       9.723   9.892  50.457  0.00  0.00    +0.000 NA
ATOM     42  C   UNK A   1       9.070   8.962  49.790  0.00  0.00    +0.000 A 
ATOM     43  N   UNK A   1       9.915   8.010  49.446  0.00  0.00    +0.000 N 
ATOM     44  C   UNK A   1      11.181   8.365  49.890  0.00  0.00    +0.000 A 
BRANCH  40  45
ATOM     45  C   UNK A   1      12.075  10.429  51.189  0.00  0.00    +0.000 C 
BRANCH  45  46
ATOM     46  C   UNK A   1      11.919  10.544  52.704  0.00  0.00    +0.000 C 
BRANCH  46  47
ATOM     47  N   UNK A   1      13.112  11.222  53.278  0.00  0.00    +0.000 NA
ATOM     48  H   UNK A   1      13.901  11.489  52.655  0.00  0.00    +0.000 HD
ENDBRANCH  46  47
BRANCH  46  49
ATOM     49  C   UNK A   1      11.764   9.145  53.336  0.00  0.00    +0.000 C 
ATOM     50  O   UNK A   1      10.666   8.758  53.766  0.00  0.00    +0.000 OA
ENDBRANCH  46  49
ENDBRANCH  45  46
ENDBRANCH  40  45
ENDBRANCH  38  43
ENDBRANCH  37  38
ENDBRANCH  35  37
ENDBRANCH  34  35
ENDBRANCH  31  34
ENDBRANCH  27  31
ENDBRANCH   1  28
BRANCH   1  51
ATOM     51  CB  LEU A   2       1.711   9.039  48.304  0.00  0.00    +0.000 C 
BRANCH  51  52
ATOM     52  CG  LEU A   2       1.907   8.142  47.069  0.00  0.00    +0.000 C 
ATOM     53  CD2 LEU A   2       0.537   8.049  46.424  0.00  0.00    +0.000 C 
ATOM     54  CD1 LEU A   2       2.971   8.749  46.121  0.00  0.00    +0.000 C 
ENDBRANCH  51  52
ENDBRANCH   1  51
TORSDOF 25
REMARK  Name = ../refined-set-2016/4llx/4llx_pocket.pdb
REMARK  93 active torsions:
REMARK  status: ('A' for Active; 'I' for Inactive)
REMARK    1  A    between atoms: _1  and  _3
REMARK    2  A    between atoms: _3  and  _4
REMARK    3  A    between atoms: _3  and  _6
REMARK    4  A    between atoms: _6  and  _7
REMARK    5  A    between atoms: _12  and  _13
REMARK    6  A    between atoms: _15  and  _17
REMARK    7  A    between atoms: _17  and  _18
REMARK    8  A    between atoms: _17  and  _20
REMARK    9  A    between atoms: _20  and  _21
REMARK   10  A    between atoms: _26  and  _28
REMARK   11  A    between atoms: _28  and  _29
REMARK   12  A    between atoms: _28  and  _31
REMARK   13  A    between atoms: _31  and  _32
REMARK   14  A    between atoms: _36  and  NI_233
REMARK   15  A    between atoms: _37  and  _39
REMARK   16  A    between atoms: _39  and  _40
REMARK   17  A    between atoms: _39  and  _42
REMARK   18  A    between atoms: _42  and  _43
REMARK   19  A    between atoms: _46  and  _48
REMARK   20  A    between atoms: _48  and  _49
REMARK   21  A    between atoms: _48  and  _51
REMARK   22  A    between atoms: _51  and  _52
REMARK   23  A    between atoms: _52  and  _54
REMARK   24  A    between atoms: _54  and  NI_233
REMARK   25  A    between atoms: _55  and  _57
REMARK   26  A    between atoms: _57  and  _58
REMARK   27  A    between atoms: _57  and  _60
REMARK   28  A    between atoms: _60  and  _61
REMARK   29  A    between atoms: _64  and  _66
REMARK   30  A    between atoms: _66  and  _67
REMARK   31  A    between atoms: _66  and  _69
REMARK   32  A    between atoms: _71  and  _73
REMARK   33  A    between atoms: _73  and  _74
REMARK   34  A    between atoms: _73  and  _76
REMARK   35  A    between atoms: _76  and  _77
REMARK   36  A    between atoms: _79  and  _81
REMARK   37  A    between atoms: _81  and  _82
REMARK   38  A    between atoms: _81  and  _84
REMARK   39  A    between atoms: _87  and  _89
REMARK   40  A    between atoms: _89  and  _90
REMARK   41  A    between atoms: _89  and  _92
REMARK   42  A    between atoms: _92  and  _93
REMARK   43  A    between atoms: _96  and  _98
REMARK   44  A    between atoms: _98  and  _99
REMARK   45  A    between atoms: _98  and  _101
REMARK   46  A    between atoms: _101  and  _102
REMARK   47  A    between atoms: _105  and  _107
REMARK   48  A    between atoms: _107  and  _108
REMARK   49  A    between atoms: _111  and  _113
REMARK   50  A    between atoms: _113  and  _114
REMARK   51  A    between atoms: _113  and  _116
REMARK   52  A    between atoms: _116  and  _117
REMARK   53  A    between atoms: _120  and  _122
REMARK   54  A    between atoms: _122  and  _123
REMARK   55  A    between atoms: _122  and  _125
REMARK   56  A    between atoms: _125  and  _126
REMARK   57  A    between atoms: _131  and  _132
REMARK   58  A    between atoms: _134  and  _136
REMARK   59  A    between atoms: _136  and  _137
REMARK   60  A    between atoms: _136  and  _139
REMARK   61  A    between atoms: _139  and  _140
REMARK   62  A    between atoms: _146  and  _148
REMARK   63  A    between atoms: _148  and  _149
REMARK   64  A    between atoms: _148  and  _151
REMARK   65  A    between atoms: _151  and  _152
REMARK   66  A    between atoms: _152  and  _153
REMARK   67  A    between atoms: _155  and  _157
REMARK   68  A    between atoms: _157  and  _158
REMARK   69  A    between atoms: _160  and  _162
REMARK   70  A    between atoms: _162  and  _163
REMARK   71  A    between atoms: _162  and  _165
REMARK   72  A    between atoms: _165  and  _166
REMARK   73  A    between atoms: _166  and  _167
REMARK   74  A    between atoms: _172  and  _174
REMARK   75  A    between atoms: _174  and  _175
REMARK   76  A    between atoms: _177  and  _179
REMARK   77  A    between atoms: _179  and  _180
REMARK   78  A    between atoms: _179  and  _182
REMARK   79  A    between atoms: _182  and  _183
REMARK   80  A    between atoms: _189  and  _191
REMARK   81  A    between atoms: _191  and  _192
REMARK   82  A    between atoms: _191  and  _194
REMARK   83  A    between atoms: _194  and  _195
REMARK   84  A    between atoms: _200  and  _201
REMARK   85  A    between atoms: _203  and  _205
REMARK   86  A    between atoms: _205  and  _206
REMARK   87  A    between atoms: _205  and  _208
REMARK   88  A    between atoms: _211  and  _213
REMARK   89  A    between atoms: _213  and  _214
REMARK   90  A    between atoms: _217  and  _219
REMARK   91  A    between atoms: _219  and  _220
REMARK   92  A    between atoms: _219  and  _222
REMARK   93  A    between atoms: _222  and  _223
REMARK                            x       y       z     vdW  Elec       q    Type
REMARK                         _______ _______ _______ _____ _____    ______ ____
ROOT
ATOM      1  CA  LEU A   1       3.362   3.082  41.384  0.00  0.00    +0.133 C 
ENDROOT
BRANCH   1   2
ATOM      2  N   LEU A   1       4.732   2.547  41.646  0.00  0.00    -0.239 NA
ATOM      3  H   LEU A   1       5.553   3.185  41.631  0.00  0.00    +0.142 HD
ENDBRANCH   1   2
BRANCH   1   4
ATOM      4  C   LEU A   1       2.667   2.458  40.171  0.00  0.00    +0.224 C 
ATOM      5  O   LEU A   1       1.397   2.452  40.106  0.00  0.00    -0.287 OA
ENDBRANCH   1   4
BRANCH   1   6
ATOM      6  CB  LEU A   1       3.375   4.613  41.247  0.00  0.00    +0.025 C 
BRANCH   6   7
ATOM      7  CG  LEU A   1       3.424   5.433  42.545  0.00  0.00    +0.002 C 
ATOM      8  CD2 LEU A   1       2.139   5.173  43.388  0.00  0.00    +0.000 C 
ATOM      9  CD1 LEU A   1       3.590   6.927  42.208  0.00  0.00    +0.000 C 
ENDBRANCH   6   7
ENDBRANCH   1   6
TORSDOF 4
REMARK  Name = ../refined-set-2016/4llx/4llx_pocket.pdb
REMARK  93 active torsions:
REMARK  status: ('A' for Active; 'I' for Inactive)
REMARK    1  A    between atoms: _1  and  _3
REMARK    2  A    between atoms: _3  and  _4
REMARK    3  A    between atoms: _3  and  _6
REMARK    4  A    between atoms: _6  and  _7
REMARK    5  A    between atoms: _12  and  _13
REMARK    6  A    between atoms: _15  and  _17
REMARK    7  A    between atoms: _17  and  _18
REMARK    8  A    between atoms: _17  and  _20
REMARK    9  A    between atoms: _20  and  _21
REMARK   10  A    between atoms: _26  and  _28
REMARK   11  A    between atoms: _28  and  _29
REMARK   12  A    between atoms: _28  and  _31
REMARK   13  A    between atoms: _31  and  _32
REMARK   14  A    between atoms: _36  and  NI_233
REMARK   15  A    between atoms: _37  and  _39
REMARK   16  A    between atoms: _39  and  _40
REMARK   17  A    between atoms: _39  and  _42
REMARK   18  A    between atoms: _42  and  _43
REMARK   19  A    between atoms: _46  and  _48
REMARK   20  A    between atoms: _48  and  _49
REMARK   21  A    between atoms: _48  and  _51
REMARK   22  A    between atoms: _51  and  _52
REMARK   23  A    between atoms: _52  and  _54
REMARK   24  A    between atoms: _54  and  NI_233
REMARK   25  A    between atoms: _55  and  _57
REMARK   26  A    between atoms: _57  and  _58
REMARK   27  A    between atoms: _57  and  _60
REMARK   28  A    between atoms: _60  and  _61
REMARK   29  A    between atoms: _64  and  _66
REMARK   30  A    between atoms: _66  and  _67
REMARK   31  A    between atoms: _66  and  _69
REMARK   32  A    between atoms: _71  and  _73
REMARK   33  A    between atoms: _73  and  _74
REMARK   34  A    between atoms: _73  and  _76
REMARK   35  A    between atoms: _76  and  _77
REMARK   36  A    between atoms: _79  and  _81
REMARK   37  A    between atoms: _81  and  _82
REMARK   38  A    between atoms: _81  and  _84
REMARK   39  A    between atoms: _87  and  _89
REMARK   40  A    between atoms: _89  and  _90
REMARK   41  A    between atoms: _89  and  _92
REMARK   42  A    between atoms: _92  and  _93
REMARK   43  A    between atoms: _96  and  _98
REMARK   44  A    between atoms: _98  and  _99
REMARK   45  A    between atoms: _98  and  _101
REMARK   46  A    between atoms: _101  and  _102
REMARK   47  A    between atoms: _105  and  _107
REMARK   48  A    between atoms: _107  and  _108
REMARK   49  A    between atoms: _111  and  _113
REMARK   50  A    between atoms: _113  and  _114
REMARK   51  A    between atoms: _113  and  _116
REMARK   52  A    between atoms: _116  and  _117
REMARK   53  A    between atoms: _120  and  _122
REMARK   54  A    between atoms: _122  and  _123
REMARK   55  A    between atoms: _122  and  _125
REMARK   56  A    between atoms: _125  and  _126
REMARK   57  A    between atoms: _131  and  _132
REMARK   58  A    between atoms: _134  and  _136
REMARK   59  A    between atoms: _136  and  _137
REMARK   60  A    between atoms: _136  and  _139
REMARK   61  A    between atoms: _139  and  _140
REMARK   62  A    between atoms: _146  and  _148
REMARK   63  A    between atoms: _148  and  _149
REMARK   64  A    between atoms: _148  and  _151
REMARK   65  A    between atoms: _151  and  _152
REMARK   66  A    between atoms: _152  and  _153
REMARK   67  A    between atoms: _155  and  _157
REMARK   68  A    between atoms: _157  and  _158
REMARK   69  A    between atoms: _160  and  _162
REMARK   70  A    between atoms: _162  and  _163
REMARK   71  A    between atoms: _162  and  _165
REMARK   72  A    between atoms: _165  and  _166
REMARK   73  A    between atoms: _166  and  _167
REMARK   74  A    between atoms: _172  and  _174
REMARK   75  A    between atoms: _174  and  _175
REMARK   76  A    between atoms: _177  and  _179
REMARK   77  A    between atoms: _179  and  _180
REMARK   78  A    between atoms: _179  and  _182
REMARK   79  A    between atoms: _182  and  _183
REMARK   80  A    between atoms: _189  and  _191
REMARK   81  A    between atoms: _191  and  _192
REMARK   82  A    between atoms: _191  and  _194
REMARK   83  A    between atoms: _194  and  _195
REMARK   84  A    between atoms: _200  and  _201
REMARK   85  A    between atoms: _203  and  _205
REMARK   86  A    between atoms: _205  and  _206
REMARK   87  A    between atoms: _205  and  _208
REMARK   88  A    between atoms: _211  and  _213
REMARK   89  A    between atoms: _213  and  _214
REMARK   90  A    between atoms: _217  and  _219
REMARK   91  A    between atoms: _219  and  _220
REMARK   92  A    between atoms: _219  and  _222
REMARK   93  A    between atoms: _222  and  _223
REMARK                            x       y       z     vdW  Elec       q    Type
REMARK                         _______ _______ _______ _____ _____    ______ ____
ROOT
ATOM      1  CA  THR A   1       3.292  19.290  51.650  0.00  0.00    +0.160 C 
ENDROOT
BRANCH   1   2
ATOM      2  N   THR A   1       3.587  19.863  52.947  0.00  0.00    -0.237 NA
ATOM      3  H   THR A   1       2.797  20.047  53.598  0.00  0.00    +0.142 HD
ENDBRANCH   1   2
BRANCH   1   4
ATOM      4  CB  THR A   1       1.739  19.254  51.493  0.00  0.00    +0.134 C 
ATOM      5  CG2 THR A   1       1.335  18.835  50.094  0.00  0.00    +0.034 C 
BRANCH   4   6
ATOM      6  OG1 THR A   1       1.200  18.320  52.434  0.00  0.00    -0.383 OA
ATOM      7  HG1 THR A   1       1.576  17.421  52.257  0.00  0.00    +0.210 HD
ENDBRANCH   4   6
ENDBRANCH   1   4
BRANCH   1   8
ATOM      8  C   THR A   1       3.904  20.127  50.504  0.00  0.00    +0.227 C 
ATOM      9  O   THR A   1       4.508  19.596  49.569  0.00  0.00    -0.287 OA
ENDBRANCH   1   8
TORSDOF 4
REMARK  Name = ../refined-set-2016/4llx/4llx_pocket.pdb
REMARK  93 active torsions:
REMARK  status: ('A' for Active; 'I' for Inactive)
REMARK    1  A    between atoms: _1  and  _3
REMARK    2  A    between atoms: _3  and  _4
REMARK    3  A    between atoms: _3  and  _6
REMARK    4  A    between atoms: _6  and  _7
REMARK    5  A    between atoms: _12  and  _13
REMARK    6  A    between atoms: _15  and  _17
REMARK    7  A    between atoms: _17  and  _18
REMARK    8  A    between atoms: _17  and  _20
REMARK    9  A    between atoms: _20  and  _21
REMARK   10  A    between atoms: _26  and  _28
REMARK   11  A    between atoms: _28  and  _29
REMARK   12  A    between atoms: _28  and  _31
REMARK   13  A    between atoms: _31  and  _32
REMARK   14  A    between atoms: _36  and  NI_233
REMARK   15  A    between atoms: _37  and  _39
REMARK   16  A    between atoms: _39  and  _40
REMARK   17  A    between atoms: _39  and  _42
REMARK   18  A    between atoms: _42  and  _43
REMARK   19  A    between atoms: _46  and  _48
REMARK   20  A    between atoms: _48  and  _49
REMARK   21  A    between atoms: _48  and  _51
REMARK   22  A    between atoms: _51  and  _52
REMARK   23  A    between atoms: _52  and  _54
REMARK   24  A    between atoms: _54  and  NI_233
REMARK   25  A    between atoms: _55  and  _57
REMARK   26  A    between atoms: _57  and  _58
REMARK   27  A    between atoms: _57  and  _60
REMARK   28  A    between atoms: _60  and  _61
REMARK   29  A    between atoms: _64  and  _66
REMARK   30  A    between atoms: _66  and  _67
REMARK   31  A    between atoms: _66  and  _69
REMARK   32  A    between atoms: _71  and  _73
REMARK   33  A    between atoms: _73  and  _74
REMARK   34  A    between atoms: _73  and  _76
REMARK   35  A    between atoms: _76  and  _77
REMARK   36  A    between atoms: _79  and  _81
REMARK   37  A    between atoms: _81  and  _82
REMARK   38  A    between atoms: _81  and  _84
REMARK   39  A    between atoms: _87  and  _89
REMARK   40  A    between atoms: _89  and  _90
REMARK   41  A    between atoms: _89  and  _92
REMARK   42  A    between atoms: _92  and  _93
REMARK   43  A    between atoms: _96  and  _98
REMARK   44  A    between atoms: _98  and  _99
REMARK   45  A    between atoms: _98  and  _101
REMARK   46  A    between atoms: _101  and  _102
REMARK   47  A    between atoms: _105  and  _107
REMARK   48  A    between atoms: _107  and  _108
REMARK   49  A    between atoms: _111  and  _113
REMARK   50  A    between atoms: _113  and  _114
REMARK   51  A    between atoms: _113  and  _116
REMARK   52  A    between atoms: _116  and  _117
REMARK   53  A    between atoms: _120  and  _122
REMARK   54  A    between atoms: _122  and  _123
REMARK   55  A    between atoms: _122  and  _125
REMARK   56  A    between atoms: _125  and  _126
REMARK   57  A    between atoms: _131  and  _132
REMARK   58  A    between atoms: _134  and  _136
REMARK   59  A    between atoms: _136  and  _137
REMARK   60  A    between atoms: _136  and  _139
REMARK   61  A    between atoms: _139  and  _140
REMARK   62  A    between atoms: _146  and  _148
REMARK   63  A    between atoms: _148  and  _149
REMARK   64  A    between atoms: _148  and  _151
REMARK   65  A    between atoms: _151  and  _152
REMARK   66  A    between atoms: _152  and  _153
REMARK   67  A    between atoms: _155  and  _157
REMARK   68  A    between atoms: _157  and  _158
REMARK   69  A    between atoms: _160  and  _162
REMARK   70  A    between atoms: _162  and  _163
REMARK   71  A    between atoms: _162  and  _165
REMARK   72  A    between atoms: _165  and  _166
REMARK   73  A    between atoms: _166  and  _167
REMARK   74  A    between atoms: _172  and  _174
REMARK   75  A    between atoms: _174  and  _175
REMARK   76  A    between atoms: _177  and  _179
REMARK   77  A    between atoms: _179  and  _180
REMARK   78  A    between atoms: _179  and  _182
REMARK   79  A    between atoms: _182  and  _183
REMARK   80  A    between atoms: _189  and  _191
REMARK   81  A    between atoms: _191  and  _192
REMARK   82  A    between atoms: _191  and  _194
REMARK   83  A    between atoms: _194  and  _195
REMARK   84  A    between atoms: _200  and  _201
REMARK   85  A    between atoms: _203  and  _205
REMARK   86  A    between atoms: _205  and  _206
REMARK   87  A    between atoms: _205  and  _208
REMARK   88  A    between atoms: _211  and  _213
REMARK   89  A    between atoms: _213  and  _214
REMARK   90  A    between atoms: _217  and  _219
REMARK   91  A    between atoms: _219  and  _220
REMARK   92  A    between atoms: _219  and  _222
REMARK   93  A    between atoms: _222  and  _223
REMARK                            x       y       z     vdW  Elec       q    Type
REMARK                         _______ _______ _______ _____ _____    ______ ____
ROOT
ATOM      1  C   THR A   1       8.017  18.545  48.385  0.00  0.00    +0.241 C 
ATOM      2  N   ALA A   2       6.907  19.063  47.885  0.00  0.00    -0.298 N 
ATOM      3  H   ALA A   2       6.169  19.420  48.525  0.00  0.00    +0.150 HD
ATOM      4  O   THR A   1       8.842  17.988  47.684  0.00  0.00    -0.274 OA
ENDROOT
BRANCH   2   5
ATOM      5  CA  ALA A   2       6.710  19.137  46.430  0.00  0.00    +0.137 C 
ATOM      6  CB  ALA A   2       5.364  19.793  46.089  0.00  0.00    +0.030 C 
BRANCH   5   7
ATOM      7  C   ALA A   2       7.882  19.862  45.722  0.00  0.00    +0.227 C 
ATOM      8  O   ALA A   2       8.304  19.447  44.645  0.00  0.00    -0.286 OA
ENDBRANCH   5   7
ENDBRANCH   2   5
BRANCH   1   9
ATOM      9  CA  THR A   1       8.221  18.642  49.916  0.00  0.00    +0.172 C 
BRANCH   9  10
ATOM     10  N   THR A   1       7.839  19.958  50.439  0.00  0.00    -0.236 NA
ATOM     11  H   THR A   1       7.066  20.029  51.131  0.00  0.00    +0.142 HD
ENDBRANCH   9  10
BRANCH   9  12
ATOM     12  CB  THR A   1       7.452  17.522  50.622  0.00  0.00    +0.135 C 
ATOM     13  CG2 THR A   1       7.916  16.171  50.135  0.00  0.00    +0.034 C 
BRANCH  12  14
ATOM     14  OG1 THR A   1       7.670  17.618  52.040  0.00  0.00    -0.383 OA
ATOM     15  HG1 THR A   1       7.349  18.497  52.363  0.00  0.00    +0.210 HD
ENDBRANCH  12  14
ENDBRANCH   9  12
ENDBRANCH   1   9
TORSDOF 6
REMARK  Name = ../refined-set-2016/4llx/4llx_pocket.pdb
REMARK  93 active torsions:
REMARK  status: ('A' for Active; 'I' for Inactive)
REMARK    1  A    between atoms: _1  and  _3
REMARK    2  A    between atoms: _3  and  _4
REMARK    3  A    between atoms: _3  and  _6
REMARK    4  A    between atoms: _6  and  _7
REMARK    5  A    between atoms: _12  and  _13
REMARK    6  A    between atoms: _15  and  _17
REMARK    7  A    between atoms: _17  and  _18
REMARK    8  A    between atoms: _17  and  _20
REMARK    9  A    between atoms: _20  and  _21
REMARK   10  A    between atoms: _26  and  _28
REMARK   11  A    between atoms: _28  and  _29
REMARK   12  A    between atoms: _28  and  _31
REMARK   13  A    between atoms: _31  and  _32
REMARK   14  A    between atoms: _36  and  NI_233
REMARK   15  A    between atoms: _37  and  _39
REMARK   16  A    between atoms: _39  and  _40
REMARK   17  A    between atoms: _39  and  _42
REMARK   18  A    between atoms: _42  and  _43
REMARK   19  A    between atoms: _46  and  _48
REMARK   20  A    between atoms: _48  and  _49
REMARK   21  A    between atoms: _48  and  _51
REMARK   22  A    between atoms: _51  and  _52
REMARK   23  A    between atoms: _52  and  _54
REMARK   24  A    between atoms: _54  and  NI_233
REMARK   25  A    between atoms: _55  and  _57
REMARK   26  A    between atoms: _57  and  _58
REMARK   27  A    between atoms: _57  and  _60
REMARK   28  A    between atoms: _60  and  _61
REMARK   29  A    between atoms: _64  and  _66
REMARK   30  A    between atoms: _66  and  _67
REMARK   31  A    between atoms: _66  and  _69
REMARK   32  A    between atoms: _71  and  _73
REMARK   33  A    between atoms: _73  and  _74
REMARK   34  A    between atoms: _73  and  _76
REMARK   35  A    between atoms: _76  and  _77
REMARK   36  A    between atoms: _79  and  _81
REMARK   37  A    between atoms: _81  and  _82
REMARK   38  A    between atoms: _81  and  _84
REMARK   39  A    between atoms: _87  and  _89
REMARK   40  A    between atoms: _89  and  _90
REMARK   41  A    between atoms: _89  and  _92
REMARK   42  A    between atoms: _92  and  _93
REMARK   43  A    between atoms: _96  and  _98
REMARK   44  A    between atoms: _98  and  _99
REMARK   45  A    between atoms: _98  and  _101
REMARK   46  A    between atoms: _101  and  _102
REMARK   47  A    between atoms: _105  and  _107
REMARK   48  A    between atoms: _107  and  _108
REMARK   49  A    between atoms: _111  and  _113
REMARK   50  A    between atoms: _113  and  _114
REMARK   51  A    between atoms: _113  and  _116
REMARK   52  A    between atoms: _116  and  _117
REMARK   53  A    between atoms: _120  and  _122
REMARK   54  A    between atoms: _122  and  _123
REMARK   55  A    between atoms: _122  and  _125
REMARK   56  A    between atoms: _125  and  _126
REMARK   57  A    between atoms: _131  and  _132
REMARK   58  A    between atoms: _134  and  _136
REMARK   59  A    between atoms: _136  and  _137
REMARK   60  A    between atoms: _136  and  _139
REMARK   61  A    between atoms: _139  and  _140
REMARK   62  A    between atoms: _146  and  _148
REMARK   63  A    between atoms: _148  and  _149
REMARK   64  A    between atoms: _148  and  _151
REMARK   65  A    between atoms: _151  and  _152
REMARK   66  A    between atoms: _152  and  _153
REMARK   67  A    between atoms: _155  and  _157
REMARK   68  A    between atoms: _157  and  _158
REMARK   69  A    between atoms: _160  and  _162
REMARK   70  A    between atoms: _162  and  _163
REMARK   71  A    between atoms: _162  and  _165
REMARK   72  A    between atoms: _165  and  _166
REMARK   73  A    between atoms: _166  and  _167
REMARK   74  A    between atoms: _172  and  _174
REMARK   75  A    between atoms: _174  and  _175
REMARK   76  A    between atoms: _177  and  _179
REMARK   77  A    between atoms: _179  and  _180
REMARK   78  A    between atoms: _179  and  _182
REMARK   79  A    between atoms: _182  and  _183
REMARK   80  A    between atoms: _189  and  _191
REMARK   81  A    between atoms: _191  and  _192
REMARK   82  A    between atoms: _191  and  _194
REMARK   83  A    between atoms: _194  and  _195
REMARK   84  A    between atoms: _200  and  _201
REMARK   85  A    between atoms: _203  and  _205
REMARK   86  A    between atoms: _205  and  _206
REMARK   87  A    between atoms: _205  and  _208
REMARK   88  A    between atoms: _211  and  _213
REMARK   89  A    between atoms: _213  and  _214
REMARK   90  A    between atoms: _217  and  _219
REMARK   91  A    between atoms: _219  and  _220
REMARK   92  A    between atoms: _219  and  _222
REMARK   93  A    between atoms: _222  and  _223
REMARK                            x       y       z     vdW  Elec       q    Type
REMARK                         _______ _______ _______ _____ _____    ______ ____
ROOT
ATOM      1  CA  TYR A   2      10.104  18.601  41.280  0.00  0.00    +0.141 C 
ENDROOT
BRANCH   1   3
ATOM      2  C   ILE A   1      10.441  16.801  42.871  0.00  0.00    +0.238 C 
ATOM      3  N   TYR A   2       9.996  18.029  42.612  0.00  0.00    -0.298 N 
ATOM      4  H   TYR A   2       9.564  18.588  43.375  0.00  0.00    +0.150 HD
ATOM      5  O   ILE A   1      10.987  16.102  42.013  0.00  0.00    -0.274 OA
BRANCH   2   6
ATOM      6  CA  ILE A   1      10.208  16.254  44.305  0.00  0.00    +0.145 C 
BRANCH   6   7
ATOM      7  N   ILE A   1      10.622  17.222  45.322  0.00  0.00    -0.238 NA
ATOM      8  H   ILE A   1       9.935  17.525  46.041  0.00  0.00    +0.142 HD
ENDBRANCH   6   7
BRANCH   6   9
ATOM      9  CB  ILE A   1       8.659  15.960  44.477  0.00  0.00    +0.025 C 
ATOM     10  CG2 ILE A   1       8.075  15.254  43.300  0.00  0.00    +0.002 C 
BRANCH   9  11
ATOM     11  CG1 ILE A   1       8.352  15.212  45.789  0.00  0.00    +0.002 C 
ATOM     12  CD1 ILE A   1       6.835  15.230  46.193  0.00  0.00    +0.000 C 
ENDBRANCH   9  11
ENDBRANCH   6   9
ENDBRANCH   2   6
ENDBRANCH   1   3
BRANCH   1  13
ATOM     13  C   TYR A   2      11.547  18.934  40.974  0.00  0.00    +0.227 C 
ATOM     14  O   TYR A   2      11.938  18.878  39.840  0.00  0.00    -0.286 OA
ENDBRANCH   1  13
BRANCH   1  15
ATOM     15  CB  TYR A   2       9.236  19.829  41.107  0.00  0.00    +0.054 C 
BRANCH  15  16
ATOM     16  CG  TYR A   2       7.854  19.415  40.714  0.00  0.00    -0.020 A 
ATOM     17  CD2 TYR A   2       6.935  19.049  41.674  0.00  0.00    -0.001 A 
ATOM     18  CE2 TYR A   2       5.648  18.633  41.305  0.00  0.00    +0.036 A 
ATOM     19  CZ  TYR A   2       5.301  18.559  39.957  0.00  0.00    +0.134 A 
ATOM     20  CE1 TYR A   2       6.194  18.881  38.990  0.00  0.00    +0.036 A 
ATOM     21  CD1 TYR A   2       7.500  19.301  39.374  0.00  0.00    -0.001 A 
BRANCH  19  22
ATOM     22  OH  TYR A   2       4.030  18.133  39.618  0.00  0.00    -0.506 OA
ATOM     23  HH  TYR A   2       3.516  17.943  40.443  0.00  0.00    +0.292 HD
ENDBRANCH  19  22
ENDBRANCH  15  16
ENDBRANCH   1  15
TORSDOF 9
REMARK  Name = ../refined-set-2016/4llx/4llx_pocket.pdb
REMARK  93 active torsions:
REMARK  status: ('A' for Active; 'I' for Inactive)
REMARK    1  A    between atoms: _1  and  _3
REMARK    2  A    between atoms: _3  and  _4
REMARK    3  A    between atoms: _3  and  _6
REMARK    4  A    between atoms: _6  and  _7
REMARK    5  A    between atoms: _12  and  _13
REMARK    6  A    between atoms: _15  and  _17
REMARK    7  A    between atoms: _17  and  _18
REMARK    8  A    between atoms: _17  and  _20
REMARK    9  A    between atoms: _20  and  _21
REMARK   10  A    between atoms: _26  and  _28
REMARK   11  A    between atoms: _28  and  _29
REMARK   12  A    between atoms: _28  and  _31
REMARK   13  A    between atoms: _31  and  _32
REMARK   14  A    between atoms: _36  and  NI_233
REMARK   15  A    between atoms: _37  and  _39
REMARK   16  A    between atoms: _39  and  _40
REMARK   17  A    between atoms: _39  and  _42
REMARK   18  A    between atoms: _42  and  _43
REMARK   19  A    between atoms: _46  and  _48
REMARK   20  A    between atoms: _48  and  _49
REMARK   21  A    between atoms: _48  and  _51
REMARK   22  A    between atoms: _51  and  _52
REMARK   23  A    between atoms: _52  and  _54
REMARK   24  A    between atoms: _54  and  NI_233
REMARK   25  A    between atoms: _55  and  _57
REMARK   26  A    between atoms: _57  and  _58
REMARK   27  A    between atoms: _57  and  _60
REMARK   28  A    between atoms: _60  and  _61
REMARK   29  A    between atoms: _64  and  _66
REMARK   30  A    between atoms: _66  and  _67
REMARK   31  A    between atoms: _66  and  _69
REMARK   32  A    between atoms: _71  and  _73
REMARK   33  A    between atoms: _73  and  _74
REMARK   34  A    between atoms: _73  and  _76
REMARK   35  A    between atoms: _76  and  _77
REMARK   36  A    between atoms: _79  and  _81
REMARK   37  A    between atoms: _81  and  _82
REMARK   38  A    between atoms: _81  and  _84
REMARK   39  A    between atoms: _87  and  _89
REMARK   40  A    between atoms: _89  and  _90
REMARK   41  A    between atoms: _89  and  _92
REMARK   42  A    between atoms: _92  and  _93
REMARK   43  A    between atoms: _96  and  _98
REMARK   44  A    between atoms: _98  and  _99
REMARK   45  A    between atoms: _98  and  _101
REMARK   46  A    between atoms: _101  and  _102
REMARK   47  A    between atoms: _105  and  _107
REMARK   48  A    between atoms: _107  and  _108
REMARK   49  A    between atoms: _111  and  _113
REMARK   50  A    between atoms: _113  and  _114
REMARK   51  A    between atoms: _113  and  _116
REMARK   52  A    between atoms: _116  and  _117
REMARK   53  A    between atoms: _120  and  _122
REMARK   54  A    between atoms: _122  and  _123
REMARK   55  A    between atoms: _122  and  _125
REMARK   56  A    between atoms: _125  and  _126
REMARK   57  A    between atoms: _131  and  _132
REMARK   58  A    between atoms: _134  and  _136
REMARK   59  A    between atoms: _136  and  _137
REMARK   60  A    between atoms: _136  and  _139
REMARK   61  A    between atoms: _139  and  _140
REMARK   62  A    between atoms: _146  and  _148
REMARK   63  A    between atoms: _148  and  _149
REMARK   64  A    between atoms: _148  and  _151
REMARK   65  A    between atoms: _151  and  _152
REMARK   66  A    between atoms: _152  and  _153
REMARK   67  A    between atoms: _155  and  _157
REMARK   68  A    between atoms: _157  and  _158
REMARK   69  A    between atoms: _160  and  _162
REMARK   70  A    between atoms: _162  and  _163
REMARK   71  A    between atoms: _162  and  _165
REMARK   72  A    between atoms: _165  and  _166
REMARK   73  A    between atoms: _166  and  _167
REMARK   74  A    between atoms: _172  and  _174
REMARK   75  A    between atoms: _174  and  _175
REMARK   76  A    between atoms: _177  and  _179
REMARK   77  A    between atoms: _179  and  _180
REMARK   78  A    between atoms: _179  and  _182
REMARK   79  A    between atoms: _182  and  _183
REMARK   80  A    between atoms: _189  and  _191
REMARK   81  A    between atoms: _191  and  _192
REMARK   82  A    between atoms: _191  and  _194
REMARK   83  A    between atoms: _194  and  _195
REMARK   84  A    between atoms: _200  and  _201
REMARK   85  A    between atoms: _203  and  _205
REMARK   86  A    between atoms: _205  and  _206
REMARK   87  A    between atoms: _205  and  _208
REMARK   88  A    between atoms: _211  and  _213
REMARK   89  A    between atoms: _213  and  _214
REMARK   90  A    between atoms: _217  and  _219
REMARK   91  A    between atoms: _219  and  _220
REMARK   92  A    between atoms: _219  and  _222
REMARK   93  A    between atoms: _222  and  _223
REMARK                            x       y       z     vdW  Elec       q    Type
REMARK                         _______ _______ _______ _____ _____    ______ ____
ROOT
ATOM      1  CB  PHE A   1      10.572  16.081  38.183  0.00  0.00    +0.051 C 
ENDROOT
BRANCH   1   2
ATOM      2  CG  PHE A   1       9.679  15.096  38.914  0.00  0.00    -0.020 A 
ATOM      3  CD2 PHE A   1       8.423  15.508  39.369  0.00  0.00    -0.004 A 
ATOM      4  CE2 PHE A   1       7.542  14.618  40.019  0.00  0.00    -0.000 A 
ATOM      5  CZ  PHE A   1       7.938  13.296  40.239  0.00  0.00    -0.000 A 
ATOM      6  CE1 PHE A   1       9.203  12.880  39.806  0.00  0.00    -0.000 A 
ATOM      7  CD1 PHE A   1      10.059  13.791  39.123  0.00  0.00    -0.004 A 
ENDBRANCH   1   2
BRANCH   1   8
ATOM      8  CA  PHE A   1      12.052  15.713  38.164  0.00  0.00    +0.137 C 
BRANCH   8   9
ATOM      9  N   PHE A   1      12.626  15.829  39.496  0.00  0.00    -0.239 NA
ATOM     10  H   PHE A   1      12.016  16.067  40.304  0.00  0.00    +0.142 HD
ENDBRANCH   8   9
BRANCH   8  11
ATOM     11  C   PHE A   1      12.797  16.600  37.113  0.00  0.00    +0.224 C 
ATOM     12  O   PHE A   1      13.102  16.144  36.007  0.00  0.00    -0.287 OA
ENDBRANCH   8  11
ENDBRANCH   1   8
TORSDOF 4
REMARK  Name = ../refined-set-2016/4llx/4llx_pocket.pdb
REMARK  93 active torsions:
REMARK  status: ('A' for Active; 'I' for Inactive)
REMARK    1  A    between atoms: _1  and  _3
REMARK    2  A    between atoms: _3  and  _4
REMARK    3  A    between atoms: _3  and  _6
REMARK    4  A    between atoms: _6  and  _7
REMARK    5  A    between atoms: _12  and  _13
REMARK    6  A    between atoms: _15  and  _17
REMARK    7  A    between atoms: _17  and  _18
REMARK    8  A    between atoms: _17  and  _20
REMARK    9  A    between atoms: _20  and  _21
REMARK   10  A    between atoms: _26  and  _28
REMARK   11  A    between atoms: _28  and  _29
REMARK   12  A    between atoms: _28  and  _31
REMARK   13  A    between atoms: _31  and  _32
REMARK   14  A    between atoms: _36  and  NI_233
REMARK   15  A    between atoms: _37  and  _39
REMARK   16  A    between atoms: _39  and  _40
REMARK   17  A    between atoms: _39  and  _42
REMARK   18  A    between atoms: _42  and  _43
REMARK   19  A    between atoms: _46  and  _48
REMARK   20  A    between atoms: _48  and  _49
REMARK   21  A    between atoms: _48  and  _51
REMARK   22  A    between atoms: _51  and  _52
REMARK   23  A    between atoms: _52  and  _54
REMARK   24  A    between atoms: _54  and  NI_233
REMARK   25  A    between atoms: _55  and  _57
REMARK   26  A    between atoms: _57  and  _58
REMARK   27  A    between atoms: _57  and  _60
REMARK   28  A    between atoms: _60  and  _61
REMARK   29  A    between atoms: _64  and  _66
REMARK   30  A    between atoms: _66  and  _67
REMARK   31  A    between atoms: _66  and  _69
REMARK   32  A    between atoms: _71  and  _73
REMARK   33  A    between atoms: _73  and  _74
REMARK   34  A    between atoms: _73  and  _76
REMARK   35  A    between atoms: _76  and  _77
REMARK   36  A    between atoms: _79  and  _81
REMARK   37  A    between atoms: _81  and  _82
REMARK   38  A    between atoms: _81  and  _84
REMARK   39  A    between atoms: _87  and  _89
REMARK   40  A    between atoms: _89  and  _90
REMARK   41  A    between atoms: _89  and  _92
REMARK   42  A    between atoms: _92  and  _93
REMARK   43  A    between atoms: _96  and  _98
REMARK   44  A    between atoms: _98  and  _99
REMARK   45  A    between atoms: _98  and  _101
REMARK   46  A    between atoms: _101  and  _102
REMARK   47  A    between atoms: _105  and  _107
REMARK   48  A    between atoms: _107  and  _108
REMARK   49  A    between atoms: _111  and  _113
REMARK   50  A    between atoms: _113  and  _114
REMARK   51  A    between atoms: _113  and  _116
REMARK   52  A    between atoms: _116  and  _117
REMARK   53  A    between atoms: _120  and  _122
REMARK   54  A    between atoms: _122  and  _123
REMARK   55  A    between atoms: _122  and  _125
REMARK   56  A    between atoms: _125  and  _126
REMARK   57  A    between atoms: _131  and  _132
REMARK   58  A    between atoms: _134  and  _136
REMARK   59  A    between atoms: _136  and  _137
REMARK   60  A    between atoms: _136  and  _139
REMARK   61  A    between atoms: _139  and  _140
REMARK   62  A    between atoms: _146  and  _148
REMARK   63  A    between atoms: _148  and  _149
REMARK   64  A    between atoms: _148  and  _151
REMARK   65  A    between atoms: _151  and  _152
REMARK   66  A    between atoms: _152  and  _153
REMARK   67  A    between atoms: _155  and  _157
REMARK   68  A    between atoms: _157  and  _158
REMARK   69  A    between atoms: _160  and  _162
REMARK   70  A    between atoms: _162  and  _163
REMARK   71  A    between atoms: _162  and  _165
REMARK   72  A    between atoms: _165  and  _166
REMARK   73  A    between atoms: _166  and  _167
REMARK   74  A    between atoms: _172  and  _174
REMARK   75  A    between atoms: _174  and  _175
REMARK   76  A    between atoms: _177  and  _179
REMARK   77  A    between atoms: _179  and  _180
REMARK   78  A    between atoms: _179  and  _182
REMARK   79  A    between atoms: _182  and  _183
REMARK   80  A    between atoms: _189  and  _191
REMARK   81  A    between atoms: _191  and  _192
REMARK   82  A    between atoms: _191  and  _194
REMARK   83  A    between atoms: _194  and  _195
REMARK   84  A    between atoms: _200  and  _201
REMARK   85  A    between atoms: _203  and  _205
REMARK   86  A    between atoms: _205  and  _206
REMARK   87  A    between atoms: _205  and  _208
REMARK   88  A    between atoms: _211  and  _213
REMARK   89  A    between atoms: _213  and  _214
REMARK   90  A    between atoms: _217  and  _219
REMARK   91  A    between atoms: _219  and  _220
REMARK   92  A    between atoms: _219  and  _222
REMARK   93  A    between atoms: _222  and  _223
REMARK                            x       y       z     vdW  Elec       q    Type
REMARK                         _______ _______ _______ _____ _____    ______ ____
ROOT
ATOM      1  CA  MET A   1       6.223  17.358  34.617  0.00  0.00    +0.134 C 
ENDROOT
BRANCH   1   2
ATOM      2  N   MET A   1       6.030  17.437  33.191  0.00  0.00    -0.239 NA
ATOM      3  H   MET A   1       5.592  16.627  32.708  0.00  0.00    +0.142 HD
ENDBRANCH   1   2
BRANCH   1   4
ATOM      4  C   MET A   1       7.726  17.488  34.925  0.00  0.00    +0.224 C 
ATOM      5  O   MET A   1       8.129  18.011  35.959  0.00  0.00    -0.287 OA
ENDBRANCH   1   4
BRANCH   1   6
ATOM      6  CB  MET A   1       5.719  16.012  35.148  0.00  0.00    +0.037 C 
BRANCH   6   7
ATOM      7  CG  MET A   1       5.642  15.950  36.660  0.00  0.00    +0.059 C 
BRANCH   7   8
ATOM      8  SD  MET A   1       5.214  14.331  37.331  0.00  0.00    -0.139 S 
ATOM      9  CE  MET A   1       6.711  13.403  37.002  0.00  0.00    +0.069 C 
ENDBRANCH   7   8
ENDBRANCH   6   7
ENDBRANCH   1   6
TORSDOF 5
REMARK  Name = ../refined-set-2016/4llx/4llx_pocket.pdb
REMARK  93 active torsions:
REMARK  status: ('A' for Active; 'I' for Inactive)
REMARK    1  A    between atoms: _1  and  _3
REMARK    2  A    between atoms: _3  and  _4
REMARK    3  A    between atoms: _3  and  _6
REMARK    4  A    between atoms: _6  and  _7
REMARK    5  A    between atoms: _12  and  _13
REMARK    6  A    between atoms: _15  and  _17
REMARK    7  A    between atoms: _17  and  _18
REMARK    8  A    between atoms: _17  and  _20
REMARK    9  A    between atoms: _20  and  _21
REMARK   10  A    between atoms: _26  and  _28
REMARK   11  A    between atoms: _28  and  _29
REMARK   12  A    between atoms: _28  and  _31
REMARK   13  A    between atoms: _31  and  _32
REMARK   14  A    between atoms: _36  and  NI_233
REMARK   15  A    between atoms: _37  and  _39
REMARK   16  A    between atoms: _39  and  _40
REMARK   17  A    between atoms: _39  and  _42
REMARK   18  A    between atoms: _42  and  _43
REMARK   19  A    between atoms: _46  and  _48
REMARK   20  A    between atoms: _48  and  _49
REMARK   21  A    between atoms: _48  and  _51
REMARK   22  A    between atoms: _51  and  _52
REMARK   23  A    between atoms: _52  and  _54
REMARK   24  A    between atoms: _54  and  NI_233
REMARK   25  A    between atoms: _55  and  _57
REMARK   26  A    between atoms: _57  and  _58
REMARK   27  A    between atoms: _57  and  _60
REMARK   28  A    between atoms: _60  and  _61
REMARK   29  A    between atoms: _64  and  _66
REMARK   30  A    between atoms: _66  and  _67
REMARK   31  A    between atoms: _66  and  _69
REMARK   32  A    between atoms: _71  and  _73
REMARK   33  A    between atoms: _73  and  _74
REMARK   34  A    between atoms: _73  and  _76
REMARK   35  A    between atoms: _76  and  _77
REMARK   36  A    between atoms: _79  and  _81
REMARK   37  A    between atoms: _81  and  _82
REMARK   38  A    between atoms: _81  and  _84
REMARK   39  A    between atoms: _87  and  _89
REMARK   40  A    between atoms: _89  and  _90
REMARK   41  A    between atoms: _89  and  _92
REMARK   42  A    between atoms: _92  and  _93
REMARK   43  A    between atoms: _96  and  _98
REMARK   44  A    between atoms: _98  and  _99
REMARK   45  A    between atoms: _98  and  _101
REMARK   46  A    between atoms: _101  and  _102
REMARK   47  A    between atoms: _105  and  _107
REMARK   48  A    between atoms: _107  and  _108
REMARK   49  A    between atoms: _111  and  _113
REMARK   50  A    between atoms: _113  and  _114
REMARK   51  A    between atoms: _113  and  _116
REMARK   52  A    between atoms: _116  and  _117
REMARK   53  A    between atoms: _120  and  _122
REMARK   54  A    between atoms: _122  and  _123
REMARK   55  A    between atoms: _122  and  _125
REMARK   56  A    between atoms: _125  and  _126
REMARK   57  A    between atoms: _131  and  _132
REMARK   58  A    between atoms: _134  and  _136
REMARK   59  A    between atoms: _136  and  _137
REMARK   60  A    between atoms: _136  and  _139
REMARK   61  A    between atoms: _139  and  _140
REMARK   62  A    between atoms: _146  and  _148
REMARK   63  A    between atoms: _148  and  _149
REMARK   64  A    between atoms: _148  and  _151
REMARK   65  A    between atoms: _151  and  _152
REMARK   66  A    between atoms: _152  and  _153
REMARK   67  A    between atoms: _155  and  _157
REMARK   68  A    between atoms: _157  and  _158
REMARK   69  A    between atoms: _160  and  _162
REMARK   70  A    between atoms: _162  and  _163
REMARK   71  A    between atoms: _162  and  _165
REMARK   72  A    between atoms: _165  and  _166
REMARK   73  A    between atoms: _166  and  _167
REMARK   74  A    between atoms: _172  and  _174
REMARK   75  A    between atoms: _174  and  _175
REMARK   76  A    between atoms: _177  and  _179
REMARK   77  A    between atoms: _179  and  _180
REMARK   78  A    between atoms: _179  and  _182
REMARK   79  A    between atoms: _182  and  _183
REMARK   80  A    between atoms: _189  and  _191
REMARK   81  A    between atoms: _191  and  _192
REMARK   82  A    between atoms: _191  and  _194
REMARK   83  A    between atoms: _194  and  _195
REMARK   84  A    between atoms: _200  and  _201
REMARK   85  A    between atoms: _203  and  _205
REMARK   86  A    between atoms: _205  and  _206
REMARK   87  A    between atoms: _205  and  _208
REMARK   88  A    between atoms: _211  and  _213
REMARK   89  A    between atoms: _213  and  _214
REMARK   90  A    between atoms: _217  and  _219
REMARK   91  A    between atoms: _219  and  _220
REMARK   92  A    between atoms: _219  and  _222
REMARK   93  A    between atoms: _222  and  _223
REMARK                            x       y       z     vdW  Elec       q    Type
REMARK                         _______ _______ _______ _____ _____    ______ ____
ROOT
ATOM      1  CA  GLN A   2      -0.556  18.141  41.129  0.00  0.00    +0.137 C 
ENDROOT
BRANCH   1   3
ATOM      2  C   GLY A   1      -0.414  17.800  38.719  0.00  0.00    +0.240 C 
ATOM      3  N   GLN A   2      -0.279  18.612  39.773  0.00  0.00    -0.298 N 
ATOM      4  H   GLN A   2       0.028  19.595  39.626  0.00  0.00    +0.150 HD
ATOM      5  O   GLY A   1      -0.777  16.609  38.797  0.00  0.00    -0.274 OA
BRANCH   2   6
ATOM      6  CA  GLY A   1      -0.150  18.429  37.361  0.00  0.00    +0.169 C 
BRANCH   6   7
ATOM      7  N   GLY A   1      -0.747  19.757  37.287  0.00  0.00    -0.236 NA
ATOM      8  H   GLY A   1      -0.135  20.588  37.161  0.00  0.00    +0.142 HD
ENDBRANCH   6   7
ENDBRANCH   2   6
ENDBRANCH   1   3
BRANCH   1   9
ATOM      9  C   GLN A   2      -2.018  17.756  41.252  0.00  0.00    +0.227 C 
ATOM     10  O   GLN A   2      -2.352  16.704  41.814  0.00  0.00    -0.286 OA
ENDBRANCH   1   9
BRANCH   1  11
ATOM     11  CB  GLN A   2      -0.143  19.172  42.180  0.00  0.00    +0.037 C 
BRANCH  11  12
ATOM     12  CG  GLN A   2       1.372  19.164  42.432  0.00  0.00    +0.087 C 
BRANCH  12  13
ATOM     13  CD  GLN A   2       1.868  17.832  43.002  0.00  0.00    +0.219 C 
ATOM     14  OE1 GLN A   2       1.587  17.509  44.148  0.00  0.00    -0.275 OA
ATOM     15  NE2 GLN A   2       2.601  17.047  42.193  0.00  0.00    -0.329 N 
ATOM     16 HE21 GLN A   2       2.950  16.129  42.536  0.00  0.00    +0.145 HD
ATOM     17 HE22 GLN A   2       2.819  17.358  41.225  0.00  0.00    +0.145 HD
ENDBRANCH  12  13
ENDBRANCH  11  12
ENDBRANCH   1  11
TORSDOF 7
REMARK  Name = ../refined-set-2016/4llx/4llx_pocket.pdb
REMARK  93 active torsions:
REMARK  status: ('A' for Active; 'I' for Inactive)
REMARK    1  A    between atoms: _1  and  _3
REMARK    2  A    between atoms: _3  and  _4
REMARK    3  A    between atoms: _3  and  _6
REMARK    4  A    between atoms: _6  and  _7
REMARK    5  A    between atoms: _12  and  _13
REMARK    6  A    between atoms: _15  and  _17
REMARK    7  A    between atoms: _17  and  _18
REMARK    8  A    between atoms: _17  and  _20
REMARK    9  A    between atoms: _20  and  _21
REMARK   10  A    between atoms: _26  and  _28
REMARK   11  A    between atoms: _28  and  _29
REMARK   12  A    between atoms: _28  and  _31
REMARK   13  A    between atoms: _31  and  _32
REMARK   14  A    between atoms: _36  and  NI_233
REMARK   15  A    between atoms: _37  and  _39
REMARK   16  A    between atoms: _39  and  _40
REMARK   17  A    between atoms: _39  and  _42
REMARK   18  A    between atoms: _42  and  _43
REMARK   19  A    between atoms: _46  and  _48
REMARK   20  A    between atoms: _48  and  _49
REMARK   21  A    between atoms: _48  and  _51
REMARK   22  A    between atoms: _51  and  _52
REMARK   23  A    between atoms: _52  and  _54
REMARK   24  A    between atoms: _54  and  NI_233
REMARK   25  A    between atoms: _55  and  _57
REMARK   26  A    between atoms: _57  and  _58
REMARK   27  A    between atoms: _57  and  _60
REMARK   28  A    between atoms: _60  and  _61
REMARK   29  A    between atoms: _64  and  _66
REMARK   30  A    between atoms: _66  and  _67
REMARK   31  A    between atoms: _66  and  _69
REMARK   32  A    between atoms: _71  and  _73
REMARK   33  A    between atoms: _73  and  _74
REMARK   34  A    between atoms: _73  and  _76
REMARK   35  A    between atoms: _76  and  _77
REMARK   36  A    between atoms: _79  and  _81
REMARK   37  A    between atoms: _81  and  _82
REMARK   38  A    between atoms: _81  and  _84
REMARK   39  A    between atoms: _87  and  _89
REMARK   40  A    between atoms: _89  and  _90
REMARK   41  A    between atoms: _89  and  _92
REMARK   42  A    between atoms: _92  and  _93
REMARK   43  A    between atoms: _96  and  _98
REMARK   44  A    between atoms: _98  and  _99
REMARK   45  A    between atoms: _98  and  _101
REMARK   46  A    between atoms: _101  and  _102
REMARK   47  A    between atoms: _105  and  _107
REMARK   48  A    between atoms: _107  and  _108
REMARK   49  A    between atoms: _111  and  _113
REMARK   50  A    between atoms: _113  and  _114
REMARK   51  A    between atoms: _113  and  _116
REMARK   52  A    between atoms: _116  and  _117
REMARK   53  A    between atoms: _120  and  _122
REMARK   54  A    between atoms: _122  and  _123
REMARK   55  A    between atoms: _122  and  _125
REMARK   56  A    between atoms: _125  and  _126
REMARK   57  A    between atoms: _131  and  _132
REMARK   58  A    between atoms: _134  and  _136
REMARK   59  A    between atoms: _136  and  _137
REMARK   60  A    between atoms: _136  and  _139
REMARK   61  A    between atoms: _139  and  _140
REMARK   62  A    between atoms: _146  and  _148
REMARK   63  A    between atoms: _148  and  _149
REMARK   64  A    between atoms: _148  and  _151
REMARK   65  A    between atoms: _151  and  _152
REMARK   66  A    between atoms: _152  and  _153
REMARK   67  A    between atoms: _155  and  _157
REMARK   68  A    between atoms: _157  and  _158
REMARK   69  A    between atoms: _160  and  _162
REMARK   70  A    between atoms: _162  and  _163
REMARK   71  A    between atoms: _162  and  _165
REMARK   72  A    between atoms: _165  and  _166
REMARK   73  A    between atoms: _166  and  _167
REMARK   74  A    between atoms: _172  and  _174
REMARK   75  A    between atoms: _174  and  _175
REMARK   76  A    between atoms: _177  and  _179
REMARK   77  A    between atoms: _179  and  _180
REMARK   78  A    between atoms: _179  and  _182
REMARK   79  A    between atoms: _182  and  _183
REMARK   80  A    between atoms: _189  and  _191
REMARK   81  A    between atoms: _191  and  _192
REMARK   82  A    between atoms: _191  and  _194
REMARK   83  A    between atoms: _194  and  _195
REMARK   84  A    between atoms: _200  and  _201
REMARK   85  A    between atoms: _203  and  _205
REMARK   86  A    between atoms: _205  and  _206
REMARK   87  A    between atoms: _205  and  _208
REMARK   88  A    between atoms: _211  and  _213
REMARK   89  A    between atoms: _213  and  _214
REMARK   90  A    between atoms: _217  and  _219
REMARK   91  A    between atoms: _219  and  _220
REMARK   92  A    between atoms: _219  and  _222
REMARK   93  A    between atoms: _222  and  _223
REMARK                            x       y       z     vdW  Elec       q    Type
REMARK                         _______ _______ _______ _____ _____    ______ ____
ROOT
ATOM      1  C   PHE A   2      -2.761  13.078  41.843  0.00  0.00    +0.241 C 
ATOM      2  N   TYR A   3      -3.298  14.097  42.505  0.00  0.00    -0.298 N 
ATOM      3  H   TYR A   3      -3.085  15.071  42.209  0.00  0.00    +0.150 HD
ATOM      4  O   PHE A   2      -2.998  11.900  42.147  0.00  0.00    -0.273 OA
ENDROOT
BRANCH   1   5
ATOM      5  CA  PHE A   2      -1.840  13.418  40.647  0.00  0.00    +0.153 C 
BRANCH   5   7
ATOM      6  C   GLY A   1      -3.571  14.176  39.147  0.00  0.00    +0.240 C 
ATOM      7  N   PHE A   2      -2.385  14.389  39.728  0.00  0.00    -0.297 N 
ATOM      8  H   PHE A   2      -1.853  15.258  39.517  0.00  0.00    +0.150 HD
ATOM      9  O   GLY A   1      -4.220  13.128  39.308  0.00  0.00    -0.274 OA
BRANCH   6  10
ATOM     10  CA  GLY A   1      -4.110  15.304  38.272  0.00  0.00    +0.169 C 
BRANCH  10  11
ATOM     11  N   GLY A   1      -3.992  16.589  38.945  0.00  0.00    -0.236 NA
ATOM     12  H   GLY A   1      -3.453  17.348  38.481  0.00  0.00    +0.142 HD
ENDBRANCH  10  11
ENDBRANCH   6  10
ENDBRANCH   5   7
BRANCH   5  13
ATOM     13  CB  PHE A   2      -0.422  13.819  41.111  0.00  0.00    +0.055 C 
BRANCH  13  14
ATOM     14  CG  PHE A   2       0.200  12.777  41.947  0.00  0.00    -0.020 A 
ATOM     15  CD2 PHE A   2       0.122  12.846  43.339  0.00  0.00    -0.004 A 
ATOM     16  CE2 PHE A   2       0.672  11.824  44.121  0.00  0.00    -0.000 A 
ATOM     17  CZ  PHE A   2       1.266  10.731  43.519  0.00  0.00    -0.000 A 
ATOM     18  CE1 PHE A   2       1.331  10.641  42.121  0.00  0.00    -0.000 A 
ATOM     19  CD1 PHE A   2       0.791  11.650  41.346  0.00  0.00    -0.004 A 
ENDBRANCH  13  14
ENDBRANCH   5  13
ENDBRANCH   1   5
BRANCH   2  20
ATOM     20  CA  TYR A   3      -4.188  13.864  43.649  0.00  0.00    +0.141 C 
BRANCH  20  21
ATOM     21  C   TYR A   3      -5.444  13.126  43.183  0.00  0.00    +0.227 C 
ATOM     22  O   TYR A   3      -5.837  12.142  43.799  0.00  0.00    -0.286 OA
ENDBRANCH  20  21
BRANCH  20  23
ATOM     23  CB  TYR A   3      -4.596  15.173  44.319  0.00  0.00    +0.054 C 
BRANCH  23  24
ATOM     24  CG  TYR A   3      -3.587  15.700  45.301  0.00  0.00    -0.020 A 
ATOM     25  CD2 TYR A   3      -3.909  15.822  46.660  0.00  0.00    -0.001 A 
ATOM     26  CE2 TYR A   3      -2.990  16.340  47.584  0.00  0.00    +0.036 A 
ATOM     27  CZ  TYR A   3      -1.730  16.712  47.129  0.00  0.00    +0.134 A 
ATOM     28  CE1 TYR A   3      -1.392  16.582  45.798  0.00  0.00    +0.036 A 
ATOM     29  CD1 TYR A   3      -2.310  16.095  44.891  0.00  0.00    -0.001 A 
BRANCH  27  30
ATOM     30  OH  TYR A   3      -0.801  17.210  47.999  0.00  0.00    -0.506 OA
ATOM     31  HH  TYR A   3       0.032  17.420  47.506  0.00  0.00    +0.292 HD
ENDBRANCH  27  30
ENDBRANCH  23  24
ENDBRANCH  20  23
ENDBRANCH   2  20
TORSDOF 11
REMARK  Name = ../refined-set-2016/4llx/4llx_pocket.pdb
REMARK  93 active torsions:
REMARK  status: ('A' for Active; 'I' for Inactive)
REMARK    1  A    between atoms: _1  and  _3
REMARK    2  A    between atoms: _3  and  _4
REMARK    3  A    between atoms: _3  and  _6
REMARK    4  A    between atoms: _6  and  _7
REMARK    5  A    between atoms: _12  and  _13
REMARK    6  A    between atoms: _15  and  _17
REMARK    7  A    between atoms: _17  and  _18
REMARK    8  A    between atoms: _17  and  _20
REMARK    9  A    between atoms: _20  and  _21
REMARK   10  A    between atoms: _26  and  _28
REMARK   11  A    between atoms: _28  and  _29
REMARK   12  A    between atoms: _28  and  _31
REMARK   13  A    between atoms: _31  and  _32
REMARK   14  A    between atoms: _36  and  NI_233
REMARK   15  A    between atoms: _37  and  _39
REMARK   16  A    between atoms: _39  and  _40
REMARK   17  A    between atoms: _39  and  _42
REMARK   18  A    between atoms: _42  and  _43
REMARK   19  A    between atoms: _46  and  _48
REMARK   20  A    between atoms: _48  and  _49
REMARK   21  A    between atoms: _48  and  _51
REMARK   22  A    between atoms: _51  and  _52
REMARK   23  A    between atoms: _52  and  _54
REMARK   24  A    between atoms: _54  and  NI_233
REMARK   25  A    between atoms: _55  and  _57
REMARK   26  A    between atoms: _57  and  _58
REMARK   27  A    between atoms: _57  and  _60
REMARK   28  A    between atoms: _60  and  _61
REMARK   29  A    between atoms: _64  and  _66
REMARK   30  A    between atoms: _66  and  _67
REMARK   31  A    between atoms: _66  and  _69
REMARK   32  A    between atoms: _71  and  _73
REMARK   33  A    between atoms: _73  and  _74
REMARK   34  A    between atoms: _73  and  _76
REMARK   35  A    between atoms: _76  and  _77
REMARK   36  A    between atoms: _79  and  _81
REMARK   37  A    between atoms: _81  and  _82
REMARK   38  A    between atoms: _81  and  _84
REMARK   39  A    between atoms: _87  and  _89
REMARK   40  A    between atoms: _89  and  _90
REMARK   41  A    between atoms: _89  and  _92
REMARK   42  A    between atoms: _92  and  _93
REMARK   43  A    between atoms: _96  and  _98
REMARK   44  A    between atoms: _98  and  _99
REMARK   45  A    between atoms: _98  and  _101
REMARK   46  A    between atoms: _101  and  _102
REMARK   47  A    between atoms: _105  and  _107
REMARK   48  A    between atoms: _107  and  _108
REMARK   49  A    between atoms: _111  and  _113
REMARK   50  A    between atoms: _113  and  _114
REMARK   51  A    between atoms: _113  and  _116
REMARK   52  A    between atoms: _116  and  _117
REMARK   53  A    between atoms: _120  and  _122
REMARK   54  A    between atoms: _122  and  _123
REMARK   55  A    between atoms: _122  and  _125
REMARK   56  A    between atoms: _125  and  _126
REMARK   57  A    between atoms: _131  and  _132
REMARK   58  A    between atoms: _134  and  _136
REMARK   59  A    between atoms: _136  and  _137
REMARK   60  A    between atoms: _136  and  _139
REMARK   61  A    between atoms: _139  and  _140
REMARK   62  A    between atoms: _146  and  _148
REMARK   63  A    between atoms: _148  and  _149
REMARK   64  A    between atoms: _148  and  _151
REMARK   65  A    between atoms: _151  and  _152
REMARK   66  A    between atoms: _152  and  _153
REMARK   67  A    between atoms: _155  and  _157
REMARK   68  A    between atoms: _157  and  _158
REMARK   69  A    between atoms: _160  and  _162
REMARK   70  A    between atoms: _162  and  _163
REMARK   71  A    between atoms: _162  and  _165
REMARK   72  A    between atoms: _165  and  _166
REMARK   73  A    between atoms: _166  and  _167
REMARK   74  A    between atoms: _172  and  _174
REMARK   75  A    between atoms: _174  and  _175
REMARK   76  A    between atoms: _177  and  _179
REMARK   77  A    between atoms: _179  and  _180
REMARK   78  A    between atoms: _179  and  _182
REMARK   79  A    between atoms: _182  and  _183
REMARK   80  A    between atoms: _189  and  _191
REMARK   81  A    between atoms: _191  and  _192
REMARK   82  A    between atoms: _191  and  _194
REMARK   83  A    between atoms: _194  and  _195
REMARK   84  A    between atoms: _200  and  _201
REMARK   85  A    between atoms: _203  and  _205
REMARK   86  A    between atoms: _205  and  _206
REMARK   87  A    between atoms: _205  and  _208
REMARK   88  A    between atoms: _211  and  _213
REMARK   89  A    between atoms: _213  and  _214
REMARK   90  A    between atoms: _217  and  _219
REMARK   91  A    between atoms: _219  and  _220
REMARK   92  A    between atoms: _219  and  _222
REMARK   93  A    between atoms: _222  and  _223
REMARK                            x       y       z     vdW  Elec       q    Type
REMARK                         _______ _______ _______ _____ _____    ______ ____
ROOT
ATOM      1  C   VAL A   1      -3.762   8.717  44.027  0.00  0.00    +0.238 C 
ATOM      2  O   VAL A   1      -4.175   7.724  44.647  0.00  0.00    -0.274 OA
ATOM      3  N   ALA A   2      -3.581   9.914  44.617  0.00  0.00    -0.298 N 
ATOM      4  H   ALA A   2      -3.456  10.770  44.039  0.00  0.00    +0.150 HD
ENDROOT
BRANCH   3   5
ATOM      5  CA  ALA A   2      -3.561  10.003  46.097  0.00  0.00    +0.137 C 
ATOM      6  CB  ALA A   2      -2.913  11.315  46.582  0.00  0.00    +0.030 C 
BRANCH   5   7
ATOM      7  C   ALA A   2      -4.947   9.831  46.702  0.00  0.00    +0.227 C 
ATOM      8  O   ALA A   2      -5.148   9.023  47.626  0.00  0.00    -0.286 OA
ENDBRANCH   5   7
ENDBRANCH   3   5
BRANCH   1   9
ATOM      9  CA  VAL A   1      -3.410   8.564  42.545  0.00  0.00    +0.145 C 
BRANCH   9  10
ATOM     10  CB  VAL A   1      -1.888   8.768  42.304  0.00  0.00    +0.025 C 
ATOM     11  CG2 VAL A   1      -1.081   7.786  43.146  0.00  0.00    +0.002 C 
ATOM     12  CG1 VAL A   1      -1.518   8.605  40.804  0.00  0.00    +0.002 C 
ENDBRANCH   9  10
BRANCH   9  13
ATOM     13  N   VAL A   1      -4.236   9.395  41.700  0.00  0.00    -0.238 NA
ATOM     14  H   VAL A   1      -4.203  10.426  41.834  0.00  0.00    +0.142 HD
ENDBRANCH   9  13
ENDBRANCH   1   9
TORSDOF 5
REMARK  Name = ../refined-set-2016/4llx/4llx_pocket.pdb
REMARK  93 active torsions:
REMARK  status: ('A' for Active; 'I' for Inactive)
REMARK    1  A    between atoms: _1  and  _3
REMARK    2  A    between atoms: _3  and  _4
REMARK    3  A    between atoms: _3  and  _6
REMARK    4  A    between atoms: _6  and  _7
REMARK    5  A    between atoms: _12  and  _13
REMARK    6  A    between atoms: _15  and  _17
REMARK    7  A    between atoms: _17  and  _18
REMARK    8  A    between atoms: _17  and  _20
REMARK    9  A    between atoms: _20  and  _21
REMARK   10  A    between atoms: _26  and  _28
REMARK   11  A    between atoms: _28  and  _29
REMARK   12  A    between atoms: _28  and  _31
REMARK   13  A    between atoms: _31  and  _32
REMARK   14  A    between atoms: _36  and  NI_233
REMARK   15  A    between atoms: _37  and  _39
REMARK   16  A    between atoms: _39  and  _40
REMARK   17  A    between atoms: _39  and  _42
REMARK   18  A    between atoms: _42  and  _43
REMARK   19  A    between atoms: _46  and  _48
REMARK   20  A    between atoms: _48  and  _49
REMARK   21  A    between atoms: _48  and  _51
REMARK   22  A    between atoms: _51  and  _52
REMARK   23  A    between atoms: _52  and  _54
REMARK   24  A    between atoms: _54  and  NI_233
REMARK   25  A    between atoms: _55  and  _57
REMARK   26  A    between atoms: _57  and  _58
REMARK   27  A    between atoms: _57  and  _60
REMARK   28  A    between atoms: _60  and  _61
REMARK   29  A    between atoms: _64  and  _66
REMARK   30  A    between atoms: _66  and  _67
REMARK   31  A    between atoms: _66  and  _69
REMARK   32  A    between atoms: _71  and  _73
REMARK   33  A    between atoms: _73  and  _74
REMARK   34  A    between atoms: _73  and  _76
REMARK   35  A    between atoms: _76  and  _77
REMARK   36  A    between atoms: _79  and  _81
REMARK   37  A    between atoms: _81  and  _82
REMARK   38  A    between atoms: _81  and  _84
REMARK   39  A    between atoms: _87  and  _89
REMARK   40  A    between atoms: _89  and  _90
REMARK   41  A    between atoms: _89  and  _92
REMARK   42  A    between atoms: _92  and  _93
REMARK   43  A    between atoms: _96  and  _98
REMARK   44  A    between atoms: _98  and  _99
REMARK   45  A    between atoms: _98  and  _101
REMARK   46  A    between atoms: _101  and  _102
REMARK   47  A    between atoms: _105  and  _107
REMARK   48  A    between atoms: _107  and  _108
REMARK   49  A    between atoms: _111  and  _113
REMARK   50  A    between atoms: _113  and  _114
REMARK   51  A    between atoms: _113  and  _116
REMARK   52  A    between atoms: _116  and  _117
REMARK   53  A    between atoms: _120  and  _122
REMARK   54  A    between atoms: _122  and  _123
REMARK   55  A    between atoms: _122  and  _125
REMARK   56  A    between atoms: _125  and  _126
REMARK   57  A    between atoms: _131  and  _132
REMARK   58  A    between atoms: _134  and  _136
REMARK   59  A    between atoms: _136  and  _137
REMARK   60  A    between atoms: _136  and  _139
REMARK   61  A    between atoms: _139  and  _140
REMARK   62  A    between atoms: _146  and  _148
REMARK   63  A    between atoms: _148  and  _149
REMARK   64  A    between atoms: _148  and  _151
REMARK   65  A    between atoms: _151  and  _152
REMARK   66  A    between atoms: _152  and  _153
REMARK   67  A    between atoms: _155  and  _157
REMARK   68  A    between atoms: _157  and  _158
REMARK   69  A    between atoms: _160  and  _162
REMARK   70  A    between atoms: _162  and  _163
REMARK   71  A    between atoms: _162  and  _165
REMARK   72  A    between atoms: _165  and  _166
REMARK   73  A    between atoms: _166  and  _167
REMARK   74  A    between atoms: _172  and  _174
REMARK   75  A    between atoms: _174  and  _175
REMARK   76  A    between atoms: _177  and  _179
REMARK   77  A    between atoms: _179  and  _180
REMARK   78  A    between atoms: _179  and  _182
REMARK   79  A    between atoms: _182  and  _183
REMARK   80  A    between atoms: _189  and  _191
REMARK   81  A    between atoms: _191  and  _192
REMARK   82  A    between atoms: _191  and  _194
REMARK   83  A    between atoms: _194  and  _195
REMARK   84  A    between atoms: _200  and  _201
REMARK   85  A    between atoms: _203  and  _205
REMARK   86  A    between atoms: _205  and  _206
REMARK   87  A    between atoms: _205  and  _208
REMARK   88  A    between atoms: _211  and  _213
REMARK   89  A    between atoms: _213  and  _214
REMARK   90  A    between atoms: _217  and  _219
REMARK   91  A    between atoms: _219  and  _220
REMARK   92  A    between atoms: _219  and  _222
REMARK   93  A    between atoms: _222  and  _223
REMARK                            x       y       z     vdW  Elec       q    Type
REMARK                         _______ _______ _______ _____ _____    ______ ____
ROOT
ATOM      1  CG  TRP A   1      -2.093  21.176  44.930  0.00  0.00    -0.002 A 
ATOM      2  CD1 TRP A   1      -1.807  20.145  45.783  0.00  0.00    +0.068 A 
ATOM      3  NE1 TRP A   1      -0.440  20.088  46.006  0.00  0.00    -0.352 N 
ATOM      4  HE1 TRP A   1       0.047  19.388  46.601  0.00  0.00    +0.166 HD
ATOM      5  CE2 TRP A   1       0.163  21.103  45.316  0.00  0.00    +0.056 A 
ATOM      6  CZ2 TRP A   1       1.512  21.455  45.229  0.00  0.00    +0.017 A 
ATOM      7  CH2 TRP A   1       1.835  22.536  44.437  0.00  0.00    +0.001 A 
ATOM      8  CZ3 TRP A   1       0.880  23.240  43.749  0.00  0.00    +0.000 A 
ATOM      9  CE3 TRP A   1      -0.476  22.891  43.820  0.00  0.00    +0.001 A 
ATOM     10  CD2 TRP A   1      -0.845  21.804  44.621  0.00  0.00    +0.013 A 
ENDROOT
BRANCH   1  11
ATOM     11  CB  TRP A   1      -3.436  21.593  44.447  0.00  0.00    +0.053 C 
BRANCH  11  12
ATOM     12  CA  TRP A   1      -3.829  22.978  44.985  0.00  0.00    +0.137 C 
BRANCH  12  13
ATOM     13  N   TRP A   1      -4.190  22.942  46.403  0.00  0.00    -0.239 NA
ATOM     14  H   TRP A   1      -4.223  22.030  46.902  0.00  0.00    +0.142 HD
ENDBRANCH  12  13
BRANCH  12  15
ATOM     15  C   TRP A   1      -4.925  23.638  44.124  0.00  0.00    +0.224 C 
ATOM     16  O   TRP A   1      -4.606  24.402  43.214  0.00  0.00    -0.287 OA
ENDBRANCH  12  15
ENDBRANCH  11  12
ENDBRANCH   1  11
TORSDOF 4
REMARK  Name = ../refined-set-2016/4llx/4llx_pocket.pdb
REMARK  93 active torsions:
REMARK  status: ('A' for Active; 'I' for Inactive)
REMARK    1  A    between atoms: _1  and  _3
REMARK    2  A    between atoms: _3  and  _4
REMARK    3  A    between atoms: _3  and  _6
REMARK    4  A    between atoms: _6  and  _7
REMARK    5  A    between atoms: _12  and  _13
REMARK    6  A    between atoms: _15  and  _17
REMARK    7  A    between atoms: _17  and  _18
REMARK    8  A    between atoms: _17  and  _20
REMARK    9  A    between atoms: _20  and  _21
REMARK   10  A    between atoms: _26  and  _28
REMARK   11  A    between atoms: _28  and  _29
REMARK   12  A    between atoms: _28  and  _31
REMARK   13  A    between atoms: _31  and  _32
REMARK   14  A    between atoms: _36  and  NI_233
REMARK   15  A    between atoms: _37  and  _39
REMARK   16  A    between atoms: _39  and  _40
REMARK   17  A    between atoms: _39  and  _42
REMARK   18  A    between atoms: _42  and  _43
REMARK   19  A    between atoms: _46  and  _48
REMARK   20  A    between atoms: _48  and  _49
REMARK   21  A    between atoms: _48  and  _51
REMARK   22  A    between atoms: _51  and  _52
REMARK   23  A    between atoms: _52  and  _54
REMARK   24  A    between atoms: _54  and  NI_233
REMARK   25  A    between atoms: _55  and  _57
REMARK   26  A    between atoms: _57  and  _58
REMARK   27  A    between atoms: _57  and  _60
REMARK   28  A    between atoms: _60  and  _61
REMARK   29  A    between atoms: _64  and  _66
REMARK   30  A    between atoms: _66  and  _67
REMARK   31  A    between atoms: _66  and  _69
REMARK   32  A    between atoms: _71  and  _73
REMARK   33  A    between atoms: _73  and  _74
REMARK   34  A    between atoms: _73  and  _76
REMARK   35  A    between atoms: _76  and  _77
REMARK   36  A    between atoms: _79  and  _81
REMARK   37  A    between atoms: _81  and  _82
REMARK   38  A    between atoms: _81  and  _84
REMARK   39  A    between atoms: _87  and  _89
REMARK   40  A    between atoms: _89  and  _90
REMARK   41  A    between atoms: _89  and  _92
REMARK   42  A    between atoms: _92  and  _93
REMARK   43  A    between atoms: _96  and  _98
REMARK   44  A    between atoms: _98  and  _99
REMARK   45  A    between atoms: _98  and  _101
REMARK   46  A    between atoms: _101  and  _102
REMARK   47  A    between atoms: _105  and  _107
REMARK   48  A    between atoms: _107  and  _108
REMARK   49  A    between atoms: _111  and  _113
REMARK   50  A    between atoms: _113  and  _114
REMARK   51  A    between atoms: _113  and  _116
REMARK   52  A    between atoms: _116  and  _117
REMARK   53  A    between atoms: _120  and  _122
REMARK   54  A    between atoms: _122  and  _123
REMARK   55  A    between atoms: _122  and  _125
REMARK   56  A    between atoms: _125  and  _126
REMARK   57  A    between atoms: _131  and  _132
REMARK   58  A    between atoms: _134  and  _136
REMARK   59  A    between atoms: _136  and  _137
REMARK   60  A    between atoms: _136  and  _139
REMARK   61  A    between atoms: _139  and  _140
REMARK   62  A    between atoms: _146  and  _148
REMARK   63  A    between atoms: _148  and  _149
REMARK   64  A    between atoms: _148  and  _151
REMARK   65  A    between atoms: _151  and  _152
REMARK   66  A    between atoms: _152  and  _153
REMARK   67  A    between atoms: _155  and  _157
REMARK   68  A    between atoms: _157  and  _158
REMARK   69  A    between atoms: _160  and  _162
REMARK   70  A    between atoms: _162  and  _163
REMARK   71  A    between atoms: _162  and  _165
REMARK   72  A    between atoms: _165  and  _166
REMARK   73  A    between atoms: _166  and  _167
REMARK   74  A    between atoms: _172  and  _174
REMARK   75  A    between atoms: _174  and  _175
REMARK   76  A    between atoms: _177  and  _179
REMARK   77  A    between atoms: _179  and  _180
REMARK   78  A    between atoms: _179  and  _182
REMARK   79  A    between atoms: _182  and  _183
REMARK   80  A    between atoms: _189  and  _191
REMARK   81  A    between atoms: _191  and  _192
REMARK   82  A    between atoms: _191  and  _194
REMARK   83  A    between atoms: _194  and  _195
REMARK   84  A    between atoms: _200  and  _201
REMARK   85  A    between atoms: _203  and  _205
REMARK   86  A    between atoms: _205  and  _206
REMARK   87  A    between atoms: _205  and  _208
REMARK   88  A    between atoms: _211  and  _213
REMARK   89  A    between atoms: _213  and  _214
REMARK   90  A    between atoms: _217  and  _219
REMARK   91  A    between atoms: _219  and  _220
REMARK   92  A    between atoms: _219  and  _222
REMARK   93  A    between atoms: _222  and  _223
REMARK                            x       y       z     vdW  Elec       q    Type
REMARK                         _______ _______ _______ _____ _____    ______ ____
ROOT
ATOM      1  O   HOH     1       5.778  11.281  50.525  0.00  0.00    +0.000 OA
ENDROOT
TORSDOF 0
REMARK  Name = ../refined-set-2016/4llx/4llx_pocket.pdb
REMARK  93 active torsions:
REMARK  status: ('A' for Active; 'I' for Inactive)
REMARK    1  A    between atoms: _1  and  _3
REMARK    2  A    between atoms: _3  and  _4
REMARK    3  A    between atoms: _3  and  _6
REMARK    4  A    between atoms: _6  and  _7
REMARK    5  A    between atoms: _12  and  _13
REMARK    6  A    between atoms: _15  and  _17
REMARK    7  A    between atoms: _17  and  _18
REMARK    8  A    between atoms: _17  and  _20
REMARK    9  A    between atoms: _20  and  _21
REMARK   10  A    between atoms: _26  and  _28
REMARK   11  A    between atoms: _28  and  _29
REMARK   12  A    between atoms: _28  and  _31
REMARK   13  A    between atoms: _31  and  _32
REMARK   14  A    between atoms: _36  and  NI_233
REMARK   15  A    between atoms: _37  and  _39
REMARK   16  A    between atoms: _39  and  _40
REMARK   17  A    between atoms: _39  and  _42
REMARK   18  A    between atoms: _42  and  _43
REMARK   19  A    between atoms: _46  and  _48
REMARK   20  A    between atoms: _48  and  _49
REMARK   21  A    between atoms: _48  and  _51
REMARK   22  A    between atoms: _51  and  _52
REMARK   23  A    between atoms: _52  and  _54
REMARK   24  A    between atoms: _54  and  NI_233
REMARK   25  A    between atoms: _55  and  _57
REMARK   26  A    between atoms: _57  and  _58
REMARK   27  A    between atoms: _57  and  _60
REMARK   28  A    between atoms: _60  and  _61
REMARK   29  A    between atoms: _64  and  _66
REMARK   30  A    between atoms: _66  and  _67
REMARK   31  A    between atoms: _66  and  _69
REMARK   32  A    between atoms: _71  and  _73
REMARK   33  A    between atoms: _73  and  _74
REMARK   34  A    between atoms: _73  and  _76
REMARK   35  A    between atoms: _76  and  _77
REMARK   36  A    between atoms: _79  and  _81
REMARK   37  A    between atoms: _81  and  _82
REMARK   38  A    between atoms: _81  and  _84
REMARK   39  A    between atoms: _87  and  _89
REMARK   40  A    between atoms: _89  and  _90
REMARK   41  A    between atoms: _89  and  _92
REMARK   42  A    between atoms: _92  and  _93
REMARK   43  A    between atoms: _96  and  _98
REMARK   44  A    between atoms: _98  and  _99
REMARK   45  A    between atoms: _98  and  _101
REMARK   46  A    between atoms: _101  and  _102
REMARK   47  A    between atoms: _105  and  _107
REMARK   48  A    between atoms: _107  and  _108
REMARK   49  A    between atoms: _111  and  _113
REMARK   50  A    between atoms: _113  and  _114
REMARK   51  A    between atoms: _113  and  _116
REMARK   52  A    between atoms: _116  and  _117
REMARK   53  A    between atoms: _120  and  _122
REMARK   54  A    between atoms: _122  and  _123
REMARK   55  A    between atoms: _122  and  _125
REMARK   56  A    between atoms: _125  and  _126
REMARK   57  A    between atoms: _131  and  _132
REMARK   58  A    between atoms: _134  and  _136
REMARK   59  A    between atoms: _136  and  _137
REMARK   60  A    between atoms: _136  and  _139
REMARK   61  A    between atoms: _139  and  _140
REMARK   62  A    between atoms: _146  and  _148
REMARK   63  A    between atoms: _148  and  _149
REMARK   64  A    between atoms: _148  and  _151
REMARK   65  A    between atoms: _151  and  _152
REMARK   66  A    between atoms: _152  and  _153
REMARK   67  A    between atoms: _155  and  _157
REMARK   68  A    between atoms: _157  and  _158
REMARK   69  A    between atoms: _160  and  _162
REMARK   70  A    between atoms: _162  and  _163
REMARK   71  A    between atoms: _162  and  _165
REMARK   72  A    between atoms: _165  and  _166
REMARK   73  A    between atoms: _166  and  _167
REMARK   74  A    between atoms: _172  and  _174
REMARK   75  A    between atoms: _174  and  _175
REMARK   76  A    between atoms: _177  and  _179
REMARK   77  A    between atoms: _179  and  _180
REMARK   78  A    between atoms: _179  and  _182
REMARK   79  A    between atoms: _182  and  _183
REMARK   80  A    between atoms: _189  and  _191
REMARK   81  A    between atoms: _191  and  _192
REMARK   82  A    between atoms: _191  and  _194
REMARK   83  A    between atoms: _194  and  _195
REMARK   84  A    between atoms: _200  and  _201
REMARK   85  A    between atoms: _203  and  _205
REMARK   86  A    between atoms: _205  and  _206
REMARK   87  A    between atoms: _205  and  _208
REMARK   88  A    between atoms: _211  and  _213
REMARK   89  A    between atoms: _213  and  _214
REMARK   90  A    between atoms: _217  and  _219
REMARK   91  A    between atoms: _219  and  _220
REMARK   92  A    between atoms: _219  and  _222
REMARK   93  A    between atoms: _222  and  _223
REMARK                            x       y       z     vdW  Elec       q    Type
REMARK                         _______ _______ _______ _____ _____    ______ ____
ROOT
ATOM      1  O   HOH     1       4.651   4.010  45.675  0.00  0.00    +0.000 OA
ENDROOT
TORSDOF 0
REMARK  Name = ../refined-set-2016/4llx/4llx_pocket.pdb
REMARK  93 active torsions:
REMARK  status: ('A' for Active; 'I' for Inactive)
REMARK    1  A    between atoms: _1  and  _3
REMARK    2  A    between atoms: _3  and  _4
REMARK    3  A    between atoms: _3  and  _6
REMARK    4  A    between atoms: _6  and  _7
REMARK    5  A    between atoms: _12  and  _13
REMARK    6  A    between atoms: _15  and  _17
REMARK    7  A    between atoms: _17  and  _18
REMARK    8  A    between atoms: _17  and  _20
REMARK    9  A    between atoms: _20  and  _21
REMARK   10  A    between atoms: _26  and  _28
REMARK   11  A    between atoms: _28  and  _29
REMARK   12  A    between atoms: _28  and  _31
REMARK   13  A    between atoms: _31  and  _32
REMARK   14  A    between atoms: _36  and  NI_233
REMARK   15  A    between atoms: _37  and  _39
REMARK   16  A    between atoms: _39  and  _40
REMARK   17  A    between atoms: _39  and  _42
REMARK   18  A    between atoms: _42  and  _43
REMARK   19  A    between atoms: _46  and  _48
REMARK   20  A    between atoms: _48  and  _49
REMARK   21  A    between atoms: _48  and  _51
REMARK   22  A    between atoms: _51  and  _52
REMARK   23  A    between atoms: _52  and  _54
REMARK   24  A    between atoms: _54  and  NI_233
REMARK   25  A    between atoms: _55  and  _57
REMARK   26  A    between atoms: _57  and  _58
REMARK   27  A    between atoms: _57  and  _60
REMARK   28  A    between atoms: _60  and  _61
REMARK   29  A    between atoms: _64  and  _66
REMARK   30  A    between atoms: _66  and  _67
REMARK   31  A    between atoms: _66  and  _69
REMARK   32  A    between atoms: _71  and  _73
REMARK   33  A    between atoms: _73  and  _74
REMARK   34  A    between atoms: _73  and  _76
REMARK   35  A    between atoms: _76  and  _77
REMARK   36  A    between atoms: _79  and  _81
REMARK   37  A    between atoms: _81  and  _82
REMARK   38  A    between atoms: _81  and  _84
REMARK   39  A    between atoms: _87  and  _89
REMARK   40  A    between atoms: _89  and  _90
REMARK   41  A    between atoms: _89  and  _92
REMARK   42  A    between atoms: _92  and  _93
REMARK   43  A    between atoms: _96  and  _98
REMARK   44  A    between atoms: _98  and  _99
REMARK   45  A    between atoms: _98  and  _101
REMARK   46  A    between atoms: _101  and  _102
REMARK   47  A    between atoms: _105  and  _107
REMARK   48  A    between atoms: _107  and  _108
REMARK   49  A    between atoms: _111  and  _113
REMARK   50  A    between atoms: _113  and  _114
REMARK   51  A    between atoms: _113  and  _116
REMARK   52  A    between atoms: _116  and  _117
REMARK   53  A    between atoms: _120  and  _122
REMARK   54  A    between atoms: _122  and  _123
REMARK   55  A    between atoms: _122  and  _125
REMARK   56  A    between atoms: _125  and  _126
REMARK   57  A    between atoms: _131  and  _132
REMARK   58  A    between atoms: _134  and  _136
REMARK   59  A    between atoms: _136  and  _137
REMARK   60  A    between atoms: _136  and  _139
REMARK   61  A    between atoms: _139  and  _140
REMARK   62  A    between atoms: _146  and  _148
REMARK   63  A    between atoms: _148  and  _149
REMARK   64  A    between atoms: _148  and  _151
REMARK   65  A    between atoms: _151  and  _152
REMARK   66  A    between atoms: _152  and  _153
REMARK   67  A    between atoms: _155  and  _157
REMARK   68  A    between atoms: _157  and  _158
REMARK   69  A    between atoms: _160  and  _162
REMARK   70  A    between atoms: _162  and  _163
REMARK   71  A    between atoms: _162  and  _165
REMARK   72  A    between atoms: _165  and  _166
REMARK   73  A    between atoms: _166  and  _167
REMARK   74  A    between atoms: _172  and  _174
REMARK   75  A    between atoms: _174  and  _175
REMARK   76  A    between atoms: _177  and  _179
REMARK   77  A    between atoms: _179  and  _180
REMARK   78  A    between atoms: _179  and  _182
REMARK   79  A    between atoms: _182  and  _183
REMARK   80  A    between atoms: _189  and  _191
REMARK   81  A    between atoms: _191  and  _192
REMARK   82  A    between atoms: _191  and  _194
REMARK   83  A    between atoms: _194  and  _195
REMARK   84  A    between atoms: _200  and  _201
REMARK   85  A    between atoms: _203  and  _205
REMARK   86  A    between atoms: _205  and  _206
REMARK   87  A    between atoms: _205  and  _208
REMARK   88  A    between atoms: _211  and  _213
REMARK   89  A    between atoms: _213  and  _214
REMARK   90  A    between atoms: _217  and  _219
REMARK   91  A    between atoms: _219  and  _220
REMARK   92  A    between atoms: _219  and  _222
REMARK   93  A    between atoms: _222  and  _223
REMARK                            x       y       z     vdW  Elec       q    Type
REMARK                         _______ _______ _______ _____ _____    ______ ____
ROOT
ATOM      1  O   HOH     1       8.921   8.117  45.867  0.00  0.00    +0.000 OA
ENDROOT
TORSDOF 0
REMARK  Name = ../refined-set-2016/4llx/4llx_pocket.pdb
REMARK  93 active torsions:
REMARK  status: ('A' for Active; 'I' for Inactive)
REMARK    1  A    between atoms: _1  and  _3
REMARK    2  A    between atoms: _3  and  _4
REMARK    3  A    between atoms: _3  and  _6
REMARK    4  A    between atoms: _6  and  _7
REMARK    5  A    between atoms: _12  and  _13
REMARK    6  A    between atoms: _15  and  _17
REMARK    7  A    between atoms: _17  and  _18
REMARK    8  A    between atoms: _17  and  _20
REMARK    9  A    between atoms: _20  and  _21
REMARK   10  A    between atoms: _26  and  _28
REMARK   11  A    between atoms: _28  and  _29
REMARK   12  A    between atoms: _28  and  _31
REMARK   13  A    between atoms: _31  and  _32
REMARK   14  A    between atoms: _36  and  NI_233
REMARK   15  A    between atoms: _37  and  _39
REMARK   16  A    between atoms: _39  and  _40
REMARK   17  A    between atoms: _39  and  _42
REMARK   18  A    between atoms: _42  and  _43
REMARK   19  A    between atoms: _46  and  _48
REMARK   20  A    between atoms: _48  and  _49
REMARK   21  A    between atoms: _48  and  _51
REMARK   22  A    between atoms: _51  and  _52
REMARK   23  A    between atoms: _52  and  _54
REMARK   24  A    between atoms: _54  and  NI_233
REMARK   25  A    between atoms: _55  and  _57
REMARK   26  A    between atoms: _57  and  _58
REMARK   27  A    between atoms: _57  and  _60
REMARK   28  A    between atoms: _60  and  _61
REMARK   29  A    between atoms: _64  and  _66
REMARK   30  A    between atoms: _66  and  _67
REMARK   31  A    between atoms: _66  and  _69
REMARK   32  A    between atoms: _71  and  _73
REMARK   33  A    between atoms: _73  and  _74
REMARK   34  A    between atoms: _73  and  _76
REMARK   35  A    between atoms: _76  and  _77
REMARK   36  A    between atoms: _79  and  _81
REMARK   37  A    between atoms: _81  and  _82
REMARK   38  A    between atoms: _81  and  _84
REMARK   39  A    between atoms: _87  and  _89
REMARK   40  A    between atoms: _89  and  _90
REMARK   41  A    between atoms: _89  and  _92
REMARK   42  A    between atoms: _92  and  _93
REMARK   43  A    between atoms: _96  and  _98
REMARK   44  A    between atoms: _98  and  _99
REMARK   45  A    between atoms: _98  and  _101
REMARK   46  A    between atoms: _101  and  _102
REMARK   47  A    between atoms: _105  and  _107
REMARK   48  A    between atoms: _107  and  _108
REMARK   49  A    between atoms: _111  and  _113
REMARK   50  A    between atoms: _113  and  _114
REMARK   51  A    between atoms: _113  and  _116
REMARK   52  A    between atoms: _116  and  _117
REMARK   53  A    between atoms: _120  and  _122
REMARK   54  A    between atoms: _122  and  _123
REMARK   55  A    between atoms: _122  and  _125
REMARK   56  A    between atoms: _125  and  _126
REMARK   57  A    between atoms: _131  and  _132
REMARK   58  A    between atoms: _134  and  _136
REMARK   59  A    between atoms: _136  and  _137
REMARK   60  A    between atoms: _136  and  _139
REMARK   61  A    between atoms: _139  and  _140
REMARK   62  A    between atoms: _146  and  _148
REMARK   63  A    between atoms: _148  and  _149
REMARK   64  A    between atoms: _148  and  _151
REMARK   65  A    between atoms: _151  and  _152
REMARK   66  A    between atoms: _152  and  _153
REMARK   67  A    between atoms: _155  and  _157
REMARK   68  A    between atoms: _157  and  _158
REMARK   69  A    between atoms: _160  and  _162
REMARK   70  A    between atoms: _162  and  _163
REMARK   71  A    between atoms: _162  and  _165
REMARK   72  A    between atoms: _165  and  _166
REMARK   73  A    between atoms: _166  and  _167
REMARK   74  A    between atoms: _172  and  _174
REMARK   75  A    between atoms: _174  and  _175
REMARK   76  A    between atoms: _177  and  _179
REMARK   77  A    between atoms: _179  and  _180
REMARK   78  A    between atoms: _179  and  _182
REMARK   79  A    between atoms: _182  and  _183
REMARK   80  A    between atoms: _189  and  _191
REMARK   81  A    between atoms: _191  and  _192
REMARK   82  A    between atoms: _191  and  _194
REMARK   83  A    between atoms: _194  and  _195
REMARK   84  A    between atoms: _200  and  _201
REMARK   85  A    between atoms: _203  and  _205
REMARK   86  A    between atoms: _205  and  _206
REMARK   87  A    between atoms: _205  and  _208
REMARK   88  A    between atoms: _211  and  _213
REMARK   89  A    between atoms: _213  and  _214
REMARK   90  A    between atoms: _217  and  _219
REMARK   91  A    between atoms: _219  and  _220
REMARK   92  A    between atoms: _219  and  _222
REMARK   93  A    between atoms: _222  and  _223
REMARK                            x       y       z     vdW  Elec       q    Type
REMARK                         _______ _______ _______ _____ _____    ______ ____
ROOT
ATOM      1  O   HOH     1       1.579  17.887  46.883  0.00  0.00    +0.000 OA
ENDROOT
TORSDOF 0
REMARK  Name = ../refined-set-2016/4llx/4llx_pocket.pdb
REMARK  93 active torsions:
REMARK  status: ('A' for Active; 'I' for Inactive)
REMARK    1  A    between atoms: _1  and  _3
REMARK    2  A    between atoms: _3  and  _4
REMARK    3  A    between atoms: _3  and  _6
REMARK    4  A    between atoms: _6  and  _7
REMARK    5  A    between atoms: _12  and  _13
REMARK    6  A    between atoms: _15  and  _17
REMARK    7  A    between atoms: _17  and  _18
REMARK    8  A    between atoms: _17  and  _20
REMARK    9  A    between atoms: _20  and  _21
REMARK   10  A    between atoms: _26  and  _28
REMARK   11  A    between atoms: _28  and  _29
REMARK   12  A    between atoms: _28  and  _31
REMARK   13  A    between atoms: _31  and  _32
REMARK   14  A    between atoms: _36  and  NI_233
REMARK   15  A    between atoms: _37  and  _39
REMARK   16  A    between atoms: _39  and  _40
REMARK   17  A    between atoms: _39  and  _42
REMARK   18  A    between atoms: _42  and  _43
REMARK   19  A    between atoms: _46  and  _48
REMARK   20  A    between atoms: _48  and  _49
REMARK   21  A    between atoms: _48  and  _51
REMARK   22  A    between atoms: _51  and  _52
REMARK   23  A    between atoms: _52  and  _54
REMARK   24  A    between atoms: _54  and  NI_233
REMARK   25  A    between atoms: _55  and  _57
REMARK   26  A    between atoms: _57  and  _58
REMARK   27  A    between atoms: _57  and  _60
REMARK   28  A    between atoms: _60  and  _61
REMARK   29  A    between atoms: _64  and  _66
REMARK   30  A    between atoms: _66  and  _67
REMARK   31  A    between atoms: _66  and  _69
REMARK   32  A    between atoms: _71  and  _73
REMARK   33  A    between atoms: _73  and  _74
REMARK   34  A    between atoms: _73  and  _76
REMARK   35  A    between atoms: _76  and  _77
REMARK   36  A    between atoms: _79  and  _81
REMARK   37  A    between atoms: _81  and  _82
REMARK   38  A    between atoms: _81  and  _84
REMARK   39  A    between atoms: _87  and  _89
REMARK   40  A    between atoms: _89  and  _90
REMARK   41  A    between atoms: _89  and  _92
REMARK   42  A    between atoms: _92  and  _93
REMARK   43  A    between atoms: _96  and  _98
REMARK   44  A    between atoms: _98  and  _99
REMARK   45  A    between atoms: _98  and  _101
REMARK   46  A    between atoms: _101  and  _102
REMARK   47  A    between atoms: _105  and  _107
REMARK   48  A    between atoms: _107  and  _108
REMARK   49  A    between atoms: _111  and  _113
REMARK   50  A    between atoms: _113  and  _114
REMARK   51  A    between atoms: _113  and  _116
REMARK   52  A    between atoms: _116  and  _117
REMARK   53  A    between atoms: _120  and  _122
REMARK   54  A    between atoms: _122  and  _123
REMARK   55  A    between atoms: _122  and  _125
REMARK   56  A    between atoms: _125  and  _126
REMARK   57  A    between atoms: _131  and  _132
REMARK   58  A    between atoms: _134  and  _136
REMARK   59  A    between atoms: _136  and  _137
REMARK   60  A    between atoms: _136  and  _139
REMARK   61  A    between atoms: _139  and  _140
REMARK   62  A    between atoms: _146  and  _148
REMARK   63  A    between atoms: _148  and  _149
REMARK   64  A    between atoms: _148  and  _151
REMARK   65  A    between atoms: _151  and  _152
REMARK   66  A    between atoms: _152  and  _153
REMARK   67  A    between atoms: _155  and  _157
REMARK   68  A    between atoms: _157  and  _158
REMARK   69  A    between atoms: _160  and  _162
REMARK   70  A    between atoms: _162  and  _163
REMARK   71  A    between atoms: _162  and  _165
REMARK   72  A    between atoms: _165  and  _166
REMARK   73  A    between atoms: _166  and  _167
REMARK   74  A    between atoms: _172  and  _174
REMARK   75  A    between atoms: _174  and  _175
REMARK   76  A    between atoms: _177  and  _179
REMARK   77  A    between atoms: _179  and  _180
REMARK   78  A    between atoms: _179  and  _182
REMARK   79  A    between atoms: _182  and  _183
REMARK   80  A    between atoms: _189  and  _191
REMARK   81  A    between atoms: _191  and  _192
REMARK   82  A    between atoms: _191  and  _194
REMARK   83  A    between atoms: _194  and  _195
REMARK   84  A    between atoms: _200  and  _201
REMARK   85  A    between atoms: _203  and  _205
REMARK   86  A    between atoms: _205  and  _206
REMARK   87  A    between atoms: _205  and  _208
REMARK   88  A    between atoms: _211  and  _213
REMARK   89  A    between atoms: _213  and  _214
REMARK   90  A    between atoms: _217  and  _219
REMARK   91  A    between atoms: _219  and  _220
REMARK   92  A    between atoms: _219  and  _222
REMARK   93  A    between atoms: _222  and  _223
REMARK                            x       y       z     vdW  Elec       q    Type
REMARK                         _______ _______ _______ _____ _____    ______ ____
ROOT
ATOM      1  O   HOH     1       8.032  12.073  51.508  0.00  0.00    +0.000 OA
ENDROOT
TORSDOF 0
REMARK  Name = ../refined-set-2016/4llx/4llx_pocket.pdb
REMARK  93 active torsions:
REMARK  status: ('A' for Active; 'I' for Inactive)
REMARK    1  A    between atoms: _1  and  _3
REMARK    2  A    between atoms: _3  and  _4
REMARK    3  A    between atoms: _3  and  _6
REMARK    4  A    between atoms: _6  and  _7
REMARK    5  A    between atoms: _12  and  _13
REMARK    6  A    between atoms: _15  and  _17
REMARK    7  A    between atoms: _17  and  _18
REMARK    8  A    between atoms: _17  and  _20
REMARK    9  A    between atoms: _20  and  _21
REMARK   10  A    between atoms: _26  and  _28
REMARK   11  A    between atoms: _28  and  _29
REMARK   12  A    between atoms: _28  and  _31
REMARK   13  A    between atoms: _31  and  _32
REMARK   14  A    between atoms: _36  and  NI_233
REMARK   15  A    between atoms: _37  and  _39
REMARK   16  A    between atoms: _39  and  _40
REMARK   17  A    between atoms: _39  and  _42
REMARK   18  A    between atoms: _42  and  _43
REMARK   19  A    between atoms: _46  and  _48
REMARK   20  A    between atoms: _48  and  _49
REMARK   21  A    between atoms: _48  and  _51
REMARK   22  A    between atoms: _51  and  _52
REMARK   23  A    between atoms: _52  and  _54
REMARK   24  A    between atoms: _54  and  NI_233
REMARK   25  A    between atoms: _55  and  _57
REMARK   26  A    between atoms: _57  and  _58
REMARK   27  A    between atoms: _57  and  _60
REMARK   28  A    between atoms: _60  and  _61
REMARK   29  A    between atoms: _64  and  _66
REMARK   30  A    between atoms: _66  and  _67
REMARK   31  A    between atoms: _66  and  _69
REMARK   32  A    between atoms: _71  and  _73
REMARK   33  A    between atoms: _73  and  _74
REMARK   34  A    between atoms: _73  and  _76
REMARK   35  A    between atoms: _76  and  _77
REMARK   36  A    between atoms: _79  and  _81
REMARK   37  A    between atoms: _81  and  _82
REMARK   38  A    between atoms: _81  and  _84
REMARK   39  A    between atoms: _87  and  _89
REMARK   40  A    between atoms: _89  and  _90
REMARK   41  A    between atoms: _89  and  _92
REMARK   42  A    between atoms: _92  and  _93
REMARK   43  A    between atoms: _96  and  _98
REMARK   44  A    between atoms: _98  and  _99
REMARK   45  A    between atoms: _98  and  _101
REMARK   46  A    between atoms: _101  and  _102
REMARK   47  A    between atoms: _105  and  _107
REMARK   48  A    between atoms: _107  and  _108
REMARK   49  A    between atoms: _111  and  _113
REMARK   50  A    between atoms: _113  and  _114
REMARK   51  A    between atoms: _113  and  _116
REMARK   52  A    between atoms: _116  and  _117
REMARK   53  A    between atoms: _120  and  _122
REMARK   54  A    between atoms: _122  and  _123
REMARK   55  A    between atoms: _122  and  _125
REMARK   56  A    between atoms: _125  and  _126
REMARK   57  A    between atoms: _131  and  _132
REMARK   58  A    between atoms: _134  and  _136
REMARK   59  A    between atoms: _136  and  _137
REMARK   60  A    between atoms: _136  and  _139
REMARK   61  A    between atoms: _139  and  _140
REMARK   62  A    between atoms: _146  and  _148
REMARK   63  A    between atoms: _148  and  _149
REMARK   64  A    between atoms: _148  and  _151
REMARK   65  A    between atoms: _151  and  _152
REMARK   66  A    between atoms: _152  and  _153
REMARK   67  A    between atoms: _155  and  _157
REMARK   68  A    between atoms: _157  and  _158
REMARK   69  A    between atoms: _160  and  _162
REMARK   70  A    between atoms: _162  and  _163
REMARK   71  A    between atoms: _162  and  _165
REMARK   72  A    between atoms: _165  and  _166
REMARK   73  A    between atoms: _166  and  _167
REMARK   74  A    between atoms: _172  and  _174
REMARK   75  A    between atoms: _174  and  _175
REMARK   76  A    between atoms: _177  and  _179
REMARK   77  A    between atoms: _179  and  _180
REMARK   78  A    between atoms: _179  and  _182
REMARK   79  A    between atoms: _182  and  _183
REMARK   80  A    between atoms: _189  and  _191
REMARK   81  A    between atoms: _191  and  _192
REMARK   82  A    between atoms: _191  and  _194
REMARK   83  A    between atoms: _194  and  _195
REMARK   84  A    between atoms: _200  and  _201
REMARK   85  A    between atoms: _203  and  _205
REMARK   86  A    between atoms: _205  and  _206
REMARK   87  A    between atoms: _205  and  _208
REMARK   88  A    between atoms: _211  and  _213
REMARK   89  A    between atoms: _213  and  _214
REMARK   90  A    between atoms: _217  and  _219
REMARK   91  A    between atoms: _219  and  _220
REMARK   92  A    between atoms: _219  and  _222
REMARK   93  A    between atoms: _222  and  _223
REMARK                            x       y       z     vdW  Elec       q    Type
REMARK                         _______ _______ _______ _____ _____    ______ ____
ROOT
ATOM      1  O   HOH     1       6.788   4.715  41.624  0.00  0.00    +0.000 OA
ENDROOT
TORSDOF 0
REMARK  Name = ../refined-set-2016/4llx/4llx_pocket.pdb
REMARK  93 active torsions:
REMARK  status: ('A' for Active; 'I' for Inactive)
REMARK    1  A    between atoms: _1  and  _3
REMARK    2  A    between atoms: _3  and  _4
REMARK    3  A    between atoms: _3  and  _6
REMARK    4  A    between atoms: _6  and  _7
REMARK    5  A    between atoms: _12  and  _13
REMARK    6  A    between atoms: _15  and  _17
REMARK    7  A    between atoms: _17  and  _18
REMARK    8  A    between atoms: _17  and  _20
REMARK    9  A    between atoms: _20  and  _21
REMARK   10  A    between atoms: _26  and  _28
REMARK   11  A    between atoms: _28  and  _29
REMARK   12  A    between atoms: _28  and  _31
REMARK   13  A    between atoms: _31  and  _32
REMARK   14  A    between atoms: _36  and  NI_233
REMARK   15  A    between atoms: _37  and  _39
REMARK   16  A    between atoms: _39  and  _40
REMARK   17  A    between atoms: _39  and  _42
REMARK   18  A    between atoms: _42  and  _43
REMARK   19  A    between atoms: _46  and  _48
REMARK   20  A    between atoms: _48  and  _49
REMARK   21  A    between atoms: _48  and  _51
REMARK   22  A    between atoms: _51  and  _52
REMARK   23  A    between atoms: _52  and  _54
REMARK   24  A    between atoms: _54  and  NI_233
REMARK   25  A    between atoms: _55  and  _57
REMARK   26  A    between atoms: _57  and  _58
REMARK   27  A    between atoms: _57  and  _60
REMARK   28  A    between atoms: _60  and  _61
REMARK   29  A    between atoms: _64  and  _66
REMARK   30  A    between atoms: _66  and  _67
REMARK   31  A    between atoms: _66  and  _69
REMARK   32  A    between atoms: _71  and  _73
REMARK   33  A    between atoms: _73  and  _74
REMARK   34  A    between atoms: _73  and  _76
REMARK   35  A    between atoms: _76  and  _77
REMARK   36  A    between atoms: _79  and  _81
REMARK   37  A    between atoms: _81  and  _82
REMARK   38  A    between atoms: _81  and  _84
REMARK   39  A    between atoms: _87  and  _89
REMARK   40  A    between atoms: _89  and  _90
REMARK   41  A    between atoms: _89  and  _92
REMARK   42  A    between atoms: _92  and  _93
REMARK   43  A    between atoms: _96  and  _98
REMARK   44  A    between atoms: _98  and  _99
REMARK   45  A    between atoms: _98  and  _101
REMARK   46  A    between atoms: _101  and  _102
REMARK   47  A    between atoms: _105  and  _107
REMARK   48  A    between atoms: _107  and  _108
REMARK   49  A    between atoms: _111  and  _113
REMARK   50  A    between atoms: _113  and  _114
REMARK   51  A    between atoms: _113  and  _116
REMARK   52  A    between atoms: _116  and  _117
REMARK   53  A    between atoms: _120  and  _122
REMARK   54  A    between atoms: _122  and  _123
REMARK   55  A    between atoms: _122  and  _125
REMARK   56  A    between atoms: _125  and  _126
REMARK   57  A    between atoms: _131  and  _132
REMARK   58  A    between atoms: _134  and  _136
REMARK   59  A    between atoms: _136  and  _137
REMARK   60  A    between atoms: _136  and  _139
REMARK   61  A    between atoms: _139  and  _140
REMARK   62  A    between atoms: _146  and  _148
REMARK   63  A    between atoms: _148  and  _149
REMARK   64  A    between atoms: _148  and  _151
REMARK   65  A    between atoms: _151  and  _152
REMARK   66  A    between atoms: _152  and  _153
REMARK   67  A    between atoms: _155  and  _157
REMARK   68  A    between atoms: _157  and  _158
REMARK   69  A    between atoms: _160  and  _162
REMARK   70  A    between atoms: _162  and  _163
REMARK   71  A    between atoms: _162  and  _165
REMARK   72  A    between atoms: _165  and  _166
REMARK   73  A    between atoms: _166  and  _167
REMARK   74  A    between atoms: _172  and  _174
REMARK   75  A    between atoms: _174  and  _175
REMARK   76  A    between atoms: _177  and  _179
REMARK   77  A    between atoms: _179  and  _180
REMARK   78  A    between atoms: _179  and  _182
REMARK   79  A    between atoms: _182  and  _183
REMARK   80  A    between atoms: _189  and  _191
REMARK   81  A    between atoms: _191  and  _192
REMARK   82  A    between atoms: _191  and  _194
REMARK   83  A    between atoms: _194  and  _195
REMARK   84  A    between atoms: _200  and  _201
REMARK   85  A    between atoms: _203  and  _205
REMARK   86  A    between atoms: _205  and  _206
REMARK   87  A    between atoms: _205  and  _208
REMARK   88  A    between atoms: _211  and  _213
REMARK   89  A    between atoms: _213  and  _214
REMARK   90  A    between atoms: _217  and  _219
REMARK   91  A    between atoms: _219  and  _220
REMARK   92  A    between atoms: _219  and  _222
REMARK   93  A    between atoms: _222  and  _223
REMARK                            x       y       z     vdW  Elec       q    Type
REMARK                         _______ _______ _______ _____ _____    ______ ____
ROOT
ATOM      1  O   HOH     1      10.965  13.186  42.609  0.00  0.00    +0.000 OA
ENDROOT
TORSDOF 0
REMARK  Name = ../refined-set-2016/4llx/4llx_pocket.pdb
REMARK  93 active torsions:
REMARK  status: ('A' for Active; 'I' for Inactive)
REMARK    1  A    between atoms: _1  and  _3
REMARK    2  A    between atoms: _3  and  _4
REMARK    3  A    between atoms: _3  and  _6
REMARK    4  A    between atoms: _6  and  _7
REMARK    5  A    between atoms: _12  and  _13
REMARK    6  A    between atoms: _15  and  _17
REMARK    7  A    between atoms: _17  and  _18
REMARK    8  A    between atoms: _17  and  _20
REMARK    9  A    between atoms: _20  and  _21
REMARK   10  A    between atoms: _26  and  _28
REMARK   11  A    between atoms: _28  and  _29
REMARK   12  A    between atoms: _28  and  _31
REMARK   13  A    between atoms: _31  and  _32
REMARK   14  A    between atoms: _36  and  NI_233
REMARK   15  A    between atoms: _37  and  _39
REMARK   16  A    between atoms: _39  and  _40
REMARK   17  A    between atoms: _39  and  _42
REMARK   18  A    between atoms: _42  and  _43
REMARK   19  A    between atoms: _46  and  _48
REMARK   20  A    between atoms: _48  and  _49
REMARK   21  A    between atoms: _48  and  _51
REMARK   22  A    between atoms: _51  and  _52
REMARK   23  A    between atoms: _52  and  _54
REMARK   24  A    between atoms: _54  and  NI_233
REMARK   25  A    between atoms: _55  and  _57
REMARK   26  A    between atoms: _57  and  _58
REMARK   27  A    between atoms: _57  and  _60
REMARK   28  A    between atoms: _60  and  _61
REMARK   29  A    between atoms: _64  and  _66
REMARK   30  A    between atoms: _66  and  _67
REMARK   31  A    between atoms: _66  and  _69
REMARK   32  A    between atoms: _71  and  _73
REMARK   33  A    between atoms: _73  and  _74
REMARK   34  A    between atoms: _73  and  _76
REMARK   35  A    between atoms: _76  and  _77
REMARK   36  A    between atoms: _79  and  _81
REMARK   37  A    between atoms: _81  and  _82
REMARK   38  A    between atoms: _81  and  _84
REMARK   39  A    between atoms: _87  and  _89
REMARK   40  A    between atoms: _89  and  _90
REMARK   41  A    between atoms: _89  and  _92
REMARK   42  A    between atoms: _92  and  _93
REMARK   43  A    between atoms: _96  and  _98
REMARK   44  A    between atoms: _98  and  _99
REMARK   45  A    between atoms: _98  and  _101
REMARK   46  A    between atoms: _101  and  _102
REMARK   47  A    between atoms: _105  and  _107
REMARK   48  A    between atoms: _107  and  _108
REMARK   49  A    between atoms: _111  and  _113
REMARK   50  A    between atoms: _113  and  _114
REMARK   51  A    between atoms: _113  and  _116
REMARK   52  A    between atoms: _116  and  _117
REMARK   53  A    between atoms: _120  and  _122
REMARK   54  A    between atoms: _122  and  _123
REMARK   55  A    between atoms: _122  and  _125
REMARK   56  A    between atoms: _125  and  _126
REMARK   57  A    between atoms: _131  and  _132
REMARK   58  A    between atoms: _134  and  _136
REMARK   59  A    between atoms: _136  and  _137
REMARK   60  A    between atoms: _136  and  _139
REMARK   61  A    between atoms: _139  and  _140
REMARK   62  A    between atoms: _146  and  _148
REMARK   63  A    between atoms: _148  and  _149
REMARK   64  A    between atoms: _148  and  _151
REMARK   65  A    between atoms: _151  and  _152
REMARK   66  A    between atoms: _152  and  _153
REMARK   67  A    between atoms: _155  and  _157
REMARK   68  A    between atoms: _157  and  _158
REMARK   69  A    between atoms: _160  and  _162
REMARK   70  A    between atoms: _162  and  _163
REMARK   71  A    between atoms: _162  and  _165
REMARK   72  A    between atoms: _165  and  _166
REMARK   73  A    between atoms: _166  and  _167
REMARK   74  A    between atoms: _172  and  _174
REMARK   75  A    between atoms: _174  and  _175
REMARK   76  A    between atoms: _177  and  _179
REMARK   77  A    between atoms: _179  and  _180
REMARK   78  A    between atoms: _179  and  _182
REMARK   79  A    between atoms: _182  and  _183
REMARK   80  A    between atoms: _189  and  _191
REMARK   81  A    between atoms: _191  and  _192
REMARK   82  A    between atoms: _191  and  _194
REMARK   83  A    between atoms: _194  and  _195
REMARK   84  A    between atoms: _200  and  _201
REMARK   85  A    between atoms: _203  and  _205
REMARK   86  A    between atoms: _205  and  _206
REMARK   87  A    between atoms: _205  and  _208
REMARK   88  A    between atoms: _211  and  _213
REMARK   89  A    between atoms: _213  and  _214
REMARK   90  A    between atoms: _217  and  _219
REMARK   91  A    between atoms: _219  and  _220
REMARK   92  A    between atoms: _219  and  _222
REMARK   93  A    between atoms: _222  and  _223
REMARK                            x       y       z     vdW  Elec       q    Type
REMARK                         _______ _______ _______ _____ _____    ______ ____
ROOT
ATOM      1  O   HOH     1      12.581  11.271  40.837  0.00  0.00    +0.000 OA
ENDROOT
TORSDOF 0
REMARK  Name = ../refined-set-2016/4llx/4llx_pocket.pdb
REMARK  93 active torsions:
REMARK  status: ('A' for Active; 'I' for Inactive)
REMARK    1  A    between atoms: _1  and  _3
REMARK    2  A    between atoms: _3  and  _4
REMARK    3  A    between atoms: _3  and  _6
REMARK    4  A    between atoms: _6  and  _7
REMARK    5  A    between atoms: _12  and  _13
REMARK    6  A    between atoms: _15  and  _17
REMARK    7  A    between atoms: _17  and  _18
REMARK    8  A    between atoms: _17  and  _20
REMARK    9  A    between atoms: _20  and  _21
REMARK   10  A    between atoms: _26  and  _28
REMARK   11  A    between atoms: _28  and  _29
REMARK   12  A    between atoms: _28  and  _31
REMARK   13  A    between atoms: _31  and  _32
REMARK   14  A    between atoms: _36  and  NI_233
REMARK   15  A    between atoms: _37  and  _39
REMARK   16  A    between atoms: _39  and  _40
REMARK   17  A    between atoms: _39  and  _42
REMARK   18  A    between atoms: _42  and  _43
REMARK   19  A    between atoms: _46  and  _48
REMARK   20  A    between atoms: _48  and  _49
REMARK   21  A    between atoms: _48  and  _51
REMARK   22  A    between atoms: _51  and  _52
REMARK   23  A    between atoms: _52  and  _54
REMARK   24  A    between atoms: _54  and  NI_233
REMARK   25  A    between atoms: _55  and  _57
REMARK   26  A    between atoms: _57  and  _58
REMARK   27  A    between atoms: _57  and  _60
REMARK   28  A    between atoms: _60  and  _61
REMARK   29  A    between atoms: _64  and  _66
REMARK   30  A    between atoms: _66  and  _67
REMARK   31  A    between atoms: _66  and  _69
REMARK   32  A    between atoms: _71  and  _73
REMARK   33  A    between atoms: _73  and  _74
REMARK   34  A    between atoms: _73  and  _76
REMARK   35  A    between atoms: _76  and  _77
REMARK   36  A    between atoms: _79  and  _81
REMARK   37  A    between atoms: _81  and  _82
REMARK   38  A    between atoms: _81  and  _84
REMARK   39  A    between atoms: _87  and  _89
REMARK   40  A    between atoms: _89  and  _90
REMARK   41  A    between atoms: _89  and  _92
REMARK   42  A    between atoms: _92  and  _93
REMARK   43  A    between atoms: _96  and  _98
REMARK   44  A    between atoms: _98  and  _99
REMARK   45  A    between atoms: _98  and  _101
REMARK   46  A    between atoms: _101  and  _102
REMARK   47  A    between atoms: _105  and  _107
REMARK   48  A    between atoms: _107  and  _108
REMARK   49  A    between atoms: _111  and  _113
REMARK   50  A    between atoms: _113  and  _114
REMARK   51  A    between atoms: _113  and  _116
REMARK   52  A    between atoms: _116  and  _117
REMARK   53  A    between atoms: _120  and  _122
REMARK   54  A    between atoms: _122  and  _123
REMARK   55  A    between atoms: _122  and  _125
REMARK   56  A    between atoms: _125  and  _126
REMARK   57  A    between atoms: _131  and  _132
REMARK   58  A    between atoms: _134  and  _136
REMARK   59  A    between atoms: _136  and  _137
REMARK   60  A    between atoms: _136  and  _139
REMARK   61  A    between atoms: _139  and  _140
REMARK   62  A    between atoms: _146  and  _148
REMARK   63  A    between atoms: _148  and  _149
REMARK   64  A    between atoms: _148  and  _151
REMARK   65  A    between atoms: _151  and  _152
REMARK   66  A    between atoms: _152  and  _153
REMARK   67  A    between atoms: _155  and  _157
REMARK   68  A    between atoms: _157  and  _158
REMARK   69  A    between atoms: _160  and  _162
REMARK   70  A    between atoms: _162  and  _163
REMARK   71  A    between atoms: _162  and  _165
REMARK   72  A    between atoms: _165  and  _166
REMARK   73  A    between atoms: _166  and  _167
REMARK   74  A    between atoms: _172  and  _174
REMARK   75  A    between atoms: _174  and  _175
REMARK   76  A    between atoms: _177  and  _179
REMARK   77  A    between atoms: _179  and  _180
REMARK   78  A    between atoms: _179  and  _182
REMARK   79  A    between atoms: _182  and  _183
REMARK   80  A    between atoms: _189  and  _191
REMARK   81  A    between atoms: _191  and  _192
REMARK   82  A    between atoms: _191  and  _194
REMARK   83  A    between atoms: _194  and  _195
REMARK   84  A    between atoms: _200  and  _201
REMARK   85  A    between atoms: _203  and  _205
REMARK   86  A    between atoms: _205  and  _206
REMARK   87  A    between atoms: _205  and  _208
REMARK   88  A    between atoms: _211  and  _213
REMARK   89  A    between atoms: _213  and  _214
REMARK   90  A    between atoms: _217  and  _219
REMARK   91  A    between atoms: _219  and  _220
REMARK   92  A    between atoms: _219  and  _222
REMARK   93  A    between atoms: _222  and  _223
REMARK                            x       y       z     vdW  Elec       q    Type
REMARK                         _______ _______ _______ _____ _____    ______ ____
ROOT
ATOM      1  O   HOH     1       3.813  17.096  48.261  0.00  0.00    +0.000 OA
ENDROOT
TORSDOF 0
REMARK  Name = ../refined-set-2016/4llx/4llx_pocket.pdb
REMARK  93 active torsions:
REMARK  status: ('A' for Active; 'I' for Inactive)
REMARK    1  A    between atoms: _1  and  _3
REMARK    2  A    between atoms: _3  and  _4
REMARK    3  A    between atoms: _3  and  _6
REMARK    4  A    between atoms: _6  and  _7
REMARK    5  A    between atoms: _12  and  _13
REMARK    6  A    between atoms: _15  and  _17
REMARK    7  A    between atoms: _17  and  _18
REMARK    8  A    between atoms: _17  and  _20
REMARK    9  A    between atoms: _20  and  _21
REMARK   10  A    between atoms: _26  and  _28
REMARK   11  A    between atoms: _28  and  _29
REMARK   12  A    between atoms: _28  and  _31
REMARK   13  A    between atoms: _31  and  _32
REMARK   14  A    between atoms: _36  and  NI_233
REMARK   15  A    between atoms: _37  and  _39
REMARK   16  A    between atoms: _39  and  _40
REMARK   17  A    between atoms: _39  and  _42
REMARK   18  A    between atoms: _42  and  _43
REMARK   19  A    between atoms: _46  and  _48
REMARK   20  A    between atoms: _48  and  _49
REMARK   21  A    between atoms: _48  and  _51
REMARK   22  A    between atoms: _51  and  _52
REMARK   23  A    between atoms: _52  and  _54
REMARK   24  A    between atoms: _54  and  NI_233
REMARK   25  A    between atoms: _55  and  _57
REMARK   26  A    between atoms: _57  and  _58
REMARK   27  A    between atoms: _57  and  _60
REMARK   28  A    between atoms: _60  and  _61
REMARK   29  A    between atoms: _64  and  _66
REMARK   30  A    between atoms: _66  and  _67
REMARK   31  A    between atoms: _66  and  _69
REMARK   32  A    between atoms: _71  and  _73
REMARK   33  A    between atoms: _73  and  _74
REMARK   34  A    between atoms: _73  and  _76
REMARK   35  A    between atoms: _76  and  _77
REMARK   36  A    between atoms: _79  and  _81
REMARK   37  A    between atoms: _81  and  _82
REMARK   38  A    between atoms: _81  and  _84
REMARK   39  A    between atoms: _87  and  _89
REMARK   40  A    between atoms: _89  and  _90
REMARK   41  A    between atoms: _89  and  _92
REMARK   42  A    between atoms: _92  and  _93
REMARK   43  A    between atoms: _96  and  _98
REMARK   44  A    between atoms: _98  and  _99
REMARK   45  A    between atoms: _98  and  _101
REMARK   46  A    between atoms: _101  and  _102
REMARK   47  A    between atoms: _105  and  _107
REMARK   48  A    between atoms: _107  and  _108
REMARK   49  A    between atoms: _111  and  _113
REMARK   50  A    between atoms: _113  and  _114
REMARK   51  A    between atoms: _113  and  _116
REMARK   52  A    between atoms: _116  and  _117
REMARK   53  A    between atoms: _120  and  _122
REMARK   54  A    between atoms: _122  and  _123
REMARK   55  A    between atoms: _122  and  _125
REMARK   56  A    between atoms: _125  and  _126
REMARK   57  A    between atoms: _131  and  _132
REMARK   58  A    between atoms: _134  and  _136
REMARK   59  A    between atoms: _136  and  _137
REMARK   60  A    between atoms: _136  and  _139
REMARK   61  A    between atoms: _139  and  _140
REMARK   62  A    between atoms: _146  and  _148
REMARK   63  A    between atoms: _148  and  _149
REMARK   64  A    between atoms: _148  and  _151
REMARK   65  A    between atoms: _151  and  _152
REMARK   66  A    between atoms: _152  and  _153
REMARK   67  A    between atoms: _155  and  _157
REMARK   68  A    between atoms: _157  and  _158
REMARK   69  A    between atoms: _160  and  _162
REMARK   70  A    between atoms: _162  and  _163
REMARK   71  A    between atoms: _162  and  _165
REMARK   72  A    between atoms: _165  and  _166
REMARK   73  A    between atoms: _166  and  _167
REMARK   74  A    between atoms: _172  and  _174
REMARK   75  A    between atoms: _174  and  _175
REMARK   76  A    between atoms: _177  and  _179
REMARK   77  A    between atoms: _179  and  _180
REMARK   78  A    between atoms: _179  and  _182
REMARK   79  A    between atoms: _182  and  _183
REMARK   80  A    between atoms: _189  and  _191
REMARK   81  A    between atoms: _191  and  _192
REMARK   82  A    between atoms: _191  and  _194
REMARK   83  A    between atoms: _194  and  _195
REMARK   84  A    between atoms: _200  and  _201
REMARK   85  A    between atoms: _203  and  _205
REMARK   86  A    between atoms: _205  and  _206
REMARK   87  A    between atoms: _205  and  _208
REMARK   88  A    between atoms: _211  and  _213
REMARK   89  A    between atoms: _213  and  _214
REMARK   90  A    between atoms: _217  and  _219
REMARK   91  A    between atoms: _219  and  _220
REMARK   92  A    between atoms: _219  and  _222
REMARK   93  A    between atoms: _222  and  _223
REMARK                            x       y       z     vdW  Elec       q    Type
REMARK                         _______ _______ _______ _____ _____    ______ ____
ROOT
ATOM      1  O   HOH     1       3.585  19.539  35.614  0.00  0.00    +0.000 OA
ENDROOT
TORSDOF 0
REMARK  Name = ../refined-set-2016/4llx/4llx_pocket.pdb
REMARK  93 active torsions:
REMARK  status: ('A' for Active; 'I' for Inactive)
REMARK    1  A    between atoms: _1  and  _3
REMARK    2  A    between atoms: _3  and  _4
REMARK    3  A    between atoms: _3  and  _6
REMARK    4  A    between atoms: _6  and  _7
REMARK    5  A    between atoms: _12  and  _13
REMARK    6  A    between atoms: _15  and  _17
REMARK    7  A    between atoms: _17  and  _18
REMARK    8  A    between atoms: _17  and  _20
REMARK    9  A    between atoms: _20  and  _21
REMARK   10  A    between atoms: _26  and  _28
REMARK   11  A    between atoms: _28  and  _29
REMARK   12  A    between atoms: _28  and  _31
REMARK   13  A    between atoms: _31  and  _32
REMARK   14  A    between atoms: _36  and  NI_233
REMARK   15  A    between atoms: _37  and  _39
REMARK   16  A    between atoms: _39  and  _40
REMARK   17  A    between atoms: _39  and  _42
REMARK   18  A    between atoms: _42  and  _43
REMARK   19  A    between atoms: _46  and  _48
REMARK   20  A    between atoms: _48  and  _49
REMARK   21  A    between atoms: _48  and  _51
REMARK   22  A    between atoms: _51  and  _52
REMARK   23  A    between atoms: _52  and  _54
REMARK   24  A    between atoms: _54  and  NI_233
REMARK   25  A    between atoms: _55  and  _57
REMARK   26  A    between atoms: _57  and  _58
REMARK   27  A    between atoms: _57  and  _60
REMARK   28  A    between atoms: _60  and  _61
REMARK   29  A    between atoms: _64  and  _66
REMARK   30  A    between atoms: _66  and  _67
REMARK   31  A    between atoms: _66  and  _69
REMARK   32  A    between atoms: _71  and  _73
REMARK   33  A    between atoms: _73  and  _74
REMARK   34  A    between atoms: _73  and  _76
REMARK   35  A    between atoms: _76  and  _77
REMARK   36  A    between atoms: _79  and  _81
REMARK   37  A    between atoms: _81  and  _82
REMARK   38  A    between atoms: _81  and  _84
REMARK   39  A    between atoms: _87  and  _89
REMARK   40  A    between atoms: _89  and  _90
REMARK   41  A    between atoms: _89  and  _92
REMARK   42  A    between atoms: _92  and  _93
REMARK   43  A    between atoms: _96  and  _98
REMARK   44  A    between atoms: _98  and  _99
REMARK   45  A    between atoms: _98  and  _101
REMARK   46  A    between atoms: _101  and  _102
REMARK   47  A    between atoms: _105  and  _107
REMARK   48  A    between atoms: _107  and  _108
REMARK   49  A    between atoms: _111  and  _113
REMARK   50  A    between atoms: _113  and  _114
REMARK   51  A    between atoms: _113  and  _116
REMARK   52  A    between atoms: _116  and  _117
REMARK   53  A    between atoms: _120  and  _122
REMARK   54  A    between atoms: _122  and  _123
REMARK   55  A    between atoms: _122  and  _125
REMARK   56  A    between atoms: _125  and  _126
REMARK   57  A    between atoms: _131  and  _132
REMARK   58  A    between atoms: _134  and  _136
REMARK   59  A    between atoms: _136  and  _137
REMARK   60  A    between atoms: _136  and  _139
REMARK   61  A    between atoms: _139  and  _140
REMARK   62  A    between atoms: _146  and  _148
REMARK   63  A    between atoms: _148  and  _149
REMARK   64  A    between atoms: _148  and  _151
REMARK   65  A    between atoms: _151  and  _152
REMARK   66  A    between atoms: _152  and  _153
REMARK   67  A    between atoms: _155  and  _157
REMARK   68  A    between atoms: _157  and  _158
REMARK   69  A    between atoms: _160  and  _162
REMARK   70  A    between atoms: _162  and  _163
REMARK   71  A    between atoms: _162  and  _165
REMARK   72  A    between atoms: _165  and  _166
REMARK   73  A    between atoms: _166  and  _167
REMARK   74  A    between atoms: _172  and  _174
REMARK   75  A    between atoms: _174  and  _175
REMARK   76  A    between atoms: _177  and  _179
REMARK   77  A    between atoms: _179  and  _180
REMARK   78  A    between atoms: _179  and  _182
REMARK   79  A    between atoms: _182  and  _183
REMARK   80  A    between atoms: _189  and  _191
REMARK   81  A    between atoms: _191  and  _192
REMARK   82  A    between atoms: _191  and  _194
REMARK   83  A    between atoms: _194  and  _195
REMARK   84  A    between atoms: _200  and  _201
REMARK   85  A    between atoms: _203  and  _205
REMARK   86  A    between atoms: _205  and  _206
REMARK   87  A    between atoms: _205  and  _208
REMARK   88  A    between atoms: _211  and  _213
REMARK   89  A    between atoms: _213  and  _214
REMARK   90  A    between atoms: _217  and  _219
REMARK   91  A    between atoms: _219  and  _220
REMARK   92  A    between atoms: _219  and  _222
REMARK   93  A    between atoms: _222  and  _223
REMARK                            x       y       z     vdW  Elec       q    Type
REMARK                         _______ _______ _______ _____ _____    ______ ____
ROOT
ATOM      1  O   HOH     1      11.339   8.909  40.111  0.00  0.00    +0.000 OA
ENDROOT
TORSDOF 0
REMARK  Name = ../refined-set-2016/4llx/4llx_pocket.pdb
REMARK  93 active torsions:
REMARK  status: ('A' for Active; 'I' for Inactive)
REMARK    1  A    between atoms: _1  and  _3
REMARK    2  A    between atoms: _3  and  _4
REMARK    3  A    between atoms: _3  and  _6
REMARK    4  A    between atoms: _6  and  _7
REMARK    5  A    between atoms: _12  and  _13
REMARK    6  A    between atoms: _15  and  _17
REMARK    7  A    between atoms: _17  and  _18
REMARK    8  A    between atoms: _17  and  _20
REMARK    9  A    between atoms: _20  and  _21
REMARK   10  A    between atoms: _26  and  _28
REMARK   11  A    between atoms: _28  and  _29
REMARK   12  A    between atoms: _28  and  _31
REMARK   13  A    between atoms: _31  and  _32
REMARK   14  A    between atoms: _36  and  NI_233
REMARK   15  A    between atoms: _37  and  _39
REMARK   16  A    between atoms: _39  and  _40
REMARK   17  A    between atoms: _39  and  _42
REMARK   18  A    between atoms: _42  and  _43
REMARK   19  A    between atoms: _46  and  _48
REMARK   20  A    between atoms: _48  and  _49
REMARK   21  A    between atoms: _48  and  _51
REMARK   22  A    between atoms: _51  and  _52
REMARK   23  A    between atoms: _52  and  _54
REMARK   24  A    between atoms: _54  and  NI_233
REMARK   25  A    between atoms: _55  and  _57
REMARK   26  A    between atoms: _57  and  _58
REMARK   27  A    between atoms: _57  and  _60
REMARK   28  A    between atoms: _60  and  _61
REMARK   29  A    between atoms: _64  and  _66
REMARK   30  A    between atoms: _66  and  _67
REMARK   31  A    between atoms: _66  and  _69
REMARK   32  A    between atoms: _71  and  _73
REMARK   33  A    between atoms: _73  and  _74
REMARK   34  A    between atoms: _73  and  _76
REMARK   35  A    between atoms: _76  and  _77
REMARK   36  A    between atoms: _79  and  _81
REMARK   37  A    between atoms: _81  and  _82
REMARK   38  A    between atoms: _81  and  _84
REMARK   39  A    between atoms: _87  and  _89
REMARK   40  A    between atoms: _89  and  _90
REMARK   41  A    between atoms: _89  and  _92
REMARK   42  A    between atoms: _92  and  _93
REMARK   43  A    between atoms: _96  and  _98
REMARK   44  A    between atoms: _98  and  _99
REMARK   45  A    between atoms: _98  and  _101
REMARK   46  A    between atoms: _101  and  _102
REMARK   47  A    between atoms: _105  and  _107
REMARK   48  A    between atoms: _107  and  _108
REMARK   49  A    between atoms: _111  and  _113
REMARK   50  A    between atoms: _113  and  _114
REMARK   51  A    between atoms: _113  and  _116
REMARK   52  A    between atoms: _116  and  _117
REMARK   53  A    between atoms: _120  and  _122
REMARK   54  A    between atoms: _122  and  _123
REMARK   55  A    between atoms: _122  and  _125
REMARK   56  A    between atoms: _125  and  _126
REMARK   57  A    between atoms: _131  and  _132
REMARK   58  A    between atoms: _134  and  _136
REMARK   59  A    between atoms: _136  and  _137
REMARK   60  A    between atoms: _136  and  _139
REMARK   61  A    between atoms: _139  and  _140
REMARK   62  A    between atoms: _146  and  _148
REMARK   63  A    between atoms: _148  and  _149
REMARK   64  A    between atoms: _148  and  _151
REMARK   65  A    between atoms: _151  and  _152
REMARK   66  A    between atoms: _152  and  _153
REMARK   67  A    between atoms: _155  and  _157
REMARK   68  A    between atoms: _157  and  _158
REMARK   69  A    between atoms: _160  and  _162
REMARK   70  A    between atoms: _162  and  _163
REMARK   71  A    between atoms: _162  and  _165
REMARK   72  A    between atoms: _165  and  _166
REMARK   73  A    between atoms: _166  and  _167
REMARK   74  A    between atoms: _172  and  _174
REMARK   75  A    between atoms: _174  and  _175
REMARK   76  A    between atoms: _177  and  _179
REMARK   77  A    between atoms: _179  and  _180
REMARK   78  A    between atoms: _179  and  _182
REMARK   79  A    between atoms: _182  and  _183
REMARK   80  A    between atoms: _189  and  _191
REMARK   81  A    between atoms: _191  and  _192
REMARK   82  A    between atoms: _191  and  _194
REMARK   83  A    between atoms: _194  and  _195
REMARK   84  A    between atoms: _200  and  _201
REMARK   85  A    between atoms: _203  and  _205
REMARK   86  A    between atoms: _205  and  _206
REMARK   87  A    between atoms: _205  and  _208
REMARK   88  A    between atoms: _211  and  _213
REMARK   89  A    between atoms: _213  and  _214
REMARK   90  A    between atoms: _217  and  _219
REMARK   91  A    between atoms: _219  and  _220
REMARK   92  A    between atoms: _219  and  _222
REMARK   93  A    between atoms: _222  and  _223
REMARK                            x       y       z     vdW  Elec       q    Type
REMARK                         _______ _______ _______ _____ _____    ______ ____
ROOT
ATOM      1  O   HOH     1       7.000   9.134  46.947  0.00  0.00    +0.000 OA
ENDROOT
TORSDOF 0
REMARK  Name = ../refined-set-2016/4llx/4llx_pocket.pdb
REMARK  93 active torsions:
REMARK  status: ('A' for Active; 'I' for Inactive)
REMARK    1  A    between atoms: _1  and  _3
REMARK    2  A    between atoms: _3  and  _4
REMARK    3  A    between atoms: _3  and  _6
REMARK    4  A    between atoms: _6  and  _7
REMARK    5  A    between atoms: _12  and  _13
REMARK    6  A    between atoms: _15  and  _17
REMARK    7  A    between atoms: _17  and  _18
REMARK    8  A    between atoms: _17  and  _20
REMARK    9  A    between atoms: _20  and  _21
REMARK   10  A    between atoms: _26  and  _28
REMARK   11  A    between atoms: _28  and  _29
REMARK   12  A    between atoms: _28  and  _31
REMARK   13  A    between atoms: _31  and  _32
REMARK   14  A    between atoms: _36  and  NI_233
REMARK   15  A    between atoms: _37  and  _39
REMARK   16  A    between atoms: _39  and  _40
REMARK   17  A    between atoms: _39  and  _42
REMARK   18  A    between atoms: _42  and  _43
REMARK   19  A    between atoms: _46  and  _48
REMARK   20  A    between atoms: _48  and  _49
REMARK   21  A    between atoms: _48  and  _51
REMARK   22  A    between atoms: _51  and  _52
REMARK   23  A    between atoms: _52  and  _54
REMARK   24  A    between atoms: _54  and  NI_233
REMARK   25  A    between atoms: _55  and  _57
REMARK   26  A    between atoms: _57  and  _58
REMARK   27  A    between atoms: _57  and  _60
REMARK   28  A    between atoms: _60  and  _61
REMARK   29  A    between atoms: _64  and  _66
REMARK   30  A    between atoms: _66  and  _67
REMARK   31  A    between atoms: _66  and  _69
REMARK   32  A    between atoms: _71  and  _73
REMARK   33  A    between atoms: _73  and  _74
REMARK   34  A    between atoms: _73  and  _76
REMARK   35  A    between atoms: _76  and  _77
REMARK   36  A    between atoms: _79  and  _81
REMARK   37  A    between atoms: _81  and  _82
REMARK   38  A    between atoms: _81  and  _84
REMARK   39  A    between atoms: _87  and  _89
REMARK   40  A    between atoms: _89  and  _90
REMARK   41  A    between atoms: _89  and  _92
REMARK   42  A    between atoms: _92  and  _93
REMARK   43  A    between atoms: _96  and  _98
REMARK   44  A    between atoms: _98  and  _99
REMARK   45  A    between atoms: _98  and  _101
REMARK   46  A    between atoms: _101  and  _102
REMARK   47  A    between atoms: _105  and  _107
REMARK   48  A    between atoms: _107  and  _108
REMARK   49  A    between atoms: _111  and  _113
REMARK   50  A    between atoms: _113  and  _114
REMARK   51  A    between atoms: _113  and  _116
REMARK   52  A    between atoms: _116  and  _117
REMARK   53  A    between atoms: _120  and  _122
REMARK   54  A    between atoms: _122  and  _123
REMARK   55  A    between atoms: _122  and  _125
REMARK   56  A    between atoms: _125  and  _126
REMARK   57  A    between atoms: _131  and  _132
REMARK   58  A    between atoms: _134  and  _136
REMARK   59  A    between atoms: _136  and  _137
REMARK   60  A    between atoms: _136  and  _139
REMARK   61  A    between atoms: _139  and  _140
REMARK   62  A    between atoms: _146  and  _148
REMARK   63  A    between atoms: _148  and  _149
REMARK   64  A    between atoms: _148  and  _151
REMARK   65  A    between atoms: _151  and  _152
REMARK   66  A    between atoms: _152  and  _153
REMARK   67  A    between atoms: _155  and  _157
REMARK   68  A    between atoms: _157  and  _158
REMARK   69  A    between atoms: _160  and  _162
REMARK   70  A    between atoms: _162  and  _163
REMARK   71  A    between atoms: _162  and  _165
REMARK   72  A    between atoms: _165  and  _166
REMARK   73  A    between atoms: _166  and  _167
REMARK   74  A    between atoms: _172  and  _174
REMARK   75  A    between atoms: _174  and  _175
REMARK   76  A    between atoms: _177  and  _179
REMARK   77  A    between atoms: _179  and  _180
REMARK   78  A    between atoms: _179  and  _182
REMARK   79  A    between atoms: _182  and  _183
REMARK   80  A    between atoms: _189  and  _191
REMARK   81  A    between atoms: _191  and  _192
REMARK   82  A    between atoms: _191  and  _194
REMARK   83  A    between atoms: _194  and  _195
REMARK   84  A    between atoms: _200  and  _201
REMARK   85  A    between atoms: _203  and  _205
REMARK   86  A    between atoms: _205  and  _206
REMARK   87  A    between atoms: _205  and  _208
REMARK   88  A    between atoms: _211  and  _213
REMARK   89  A    between atoms: _213  and  _214
REMARK   90  A    between atoms: _217  and  _219
REMARK   91  A    between atoms: _219  and  _220
REMARK   92  A    between atoms: _219  and  _222
REMARK   93  A    between atoms: _222  and  _223
REMARK                            x       y       z     vdW  Elec       q    Type
REMARK                         _______ _______ _______ _____ _____    ______ ____
ROOT
ATOM      1  O   HOH     1      10.257   6.323  43.957  0.00  0.00    +0.000 OA
ENDROOT
TORSDOF 0
REMARK  Name = ../refined-set-2016/4llx/4llx_pocket.pdb
REMARK  93 active torsions:
REMARK  status: ('A' for Active; 'I' for Inactive)
REMARK    1  A    between atoms: _1  and  _3
REMARK    2  A    between atoms: _3  and  _4
REMARK    3  A    between atoms: _3  and  _6
REMARK    4  A    between atoms: _6  and  _7
REMARK    5  A    between atoms: _12  and  _13
REMARK    6  A    between atoms: _15  and  _17
REMARK    7  A    between atoms: _17  and  _18
REMARK    8  A    between atoms: _17  and  _20
REMARK    9  A    between atoms: _20  and  _21
REMARK   10  A    between atoms: _26  and  _28
REMARK   11  A    between atoms: _28  and  _29
REMARK   12  A    between atoms: _28  and  _31
REMARK   13  A    between atoms: _31  and  _32
REMARK   14  A    between atoms: _36  and  NI_233
REMARK   15  A    between atoms: _37  and  _39
REMARK   16  A    between atoms: _39  and  _40
REMARK   17  A    between atoms: _39  and  _42
REMARK   18  A    between atoms: _42  and  _43
REMARK   19  A    between atoms: _46  and  _48
REMARK   20  A    between atoms: _48  and  _49
REMARK   21  A    between atoms: _48  and  _51
REMARK   22  A    between atoms: _51  and  _52
REMARK   23  A    between atoms: _52  and  _54
REMARK   24  A    between atoms: _54  and  NI_233
REMARK   25  A    between atoms: _55  and  _57
REMARK   26  A    between atoms: _57  and  _58
REMARK   27  A    between atoms: _57  and  _60
REMARK   28  A    between atoms: _60  and  _61
REMARK   29  A    between atoms: _64  and  _66
REMARK   30  A    between atoms: _66  and  _67
REMARK   31  A    between atoms: _66  and  _69
REMARK   32  A    between atoms: _71  and  _73
REMARK   33  A    between atoms: _73  and  _74
REMARK   34  A    between atoms: _73  and  _76
REMARK   35  A    between atoms: _76  and  _77
REMARK   36  A    between atoms: _79  and  _81
REMARK   37  A    between atoms: _81  and  _82
REMARK   38  A    between atoms: _81  and  _84
REMARK   39  A    between atoms: _87  and  _89
REMARK   40  A    between atoms: _89  and  _90
REMARK   41  A    between atoms: _89  and  _92
REMARK   42  A    between atoms: _92  and  _93
REMARK   43  A    between atoms: _96  and  _98
REMARK   44  A    between atoms: _98  and  _99
REMARK   45  A    between atoms: _98  and  _101
REMARK   46  A    between atoms: _101  and  _102
REMARK   47  A    between atoms: _105  and  _107
REMARK   48  A    between atoms: _107  and  _108
REMARK   49  A    between atoms: _111  and  _113
REMARK   50  A    between atoms: _113  and  _114
REMARK   51  A    between atoms: _113  and  _116
REMARK   52  A    between atoms: _116  and  _117
REMARK   53  A    between atoms: _120  and  _122
REMARK   54  A    between atoms: _122  and  _123
REMARK   55  A    between atoms: _122  and  _125
REMARK   56  A    between atoms: _125  and  _126
REMARK   57  A    between atoms: _131  and  _132
REMARK   58  A    between atoms: _134  and  _136
REMARK   59  A    between atoms: _136  and  _137
REMARK   60  A    between atoms: _136  and  _139
REMARK   61  A    between atoms: _139  and  _140
REMARK   62  A    between atoms: _146  and  _148
REMARK   63  A    between atoms: _148  and  _149
REMARK   64  A    between atoms: _148  and  _151
REMARK   65  A    between atoms: _151  and  _152
REMARK   66  A    between atoms: _152  and  _153
REMARK   67  A    between atoms: _155  and  _157
REMARK   68  A    between atoms: _157  and  _158
REMARK   69  A    between atoms: _160  and  _162
REMARK   70  A    between atoms: _162  and  _163
REMARK   71  A    between atoms: _162  and  _165
REMARK   72  A    between atoms: _165  and  _166
REMARK   73  A    between atoms: _166  and  _167
REMARK   74  A    between atoms: _172  and  _174
REMARK   75  A    between atoms: _174  and  _175
REMARK   76  A    between atoms: _177  and  _179
REMARK   77  A    between atoms: _179  and  _180
REMARK   78  A    between atoms: _179  and  _182
REMARK   79  A    between atoms: _182  and  _183
REMARK   80  A    between atoms: _189  and  _191
REMARK   81  A    between atoms: _191  and  _192
REMARK   82  A    between atoms: _191  and  _194
REMARK   83  A    between atoms: _194  and  _195
REMARK   84  A    between atoms: _200  and  _201
REMARK   85  A    between atoms: _203  and  _205
REMARK   86  A    between atoms: _205  and  _206
REMARK   87  A    between atoms: _205  and  _208
REMARK   88  A    between atoms: _211  and  _213
REMARK   89  A    between atoms: _213  and  _214
REMARK   90  A    between atoms: _217  and  _219
REMARK   91  A    between atoms: _219  and  _220
REMARK   92  A    between atoms: _219  and  _222
REMARK   93  A    between atoms: _222  and  _223
REMARK                            x       y       z     vdW  Elec       q    Type
REMARK                         _______ _______ _______ _____ _____    ______ ____
ROOT
ATOM      1  O   HOH     1       4.543  12.454  47.679  0.00  0.00    +0.000 OA
ENDROOT
TORSDOF 0
REMARK  Name = ../refined-set-2016/4llx/4llx_pocket.pdb
REMARK  93 active torsions:
REMARK  status: ('A' for Active; 'I' for Inactive)
REMARK    1  A    between atoms: _1  and  _3
REMARK    2  A    between atoms: _3  and  _4
REMARK    3  A    between atoms: _3  and  _6
REMARK    4  A    between atoms: _6  and  _7
REMARK    5  A    between atoms: _12  and  _13
REMARK    6  A    between atoms: _15  and  _17
REMARK    7  A    between atoms: _17  and  _18
REMARK    8  A    between atoms: _17  and  _20
REMARK    9  A    between atoms: _20  and  _21
REMARK   10  A    between atoms: _26  and  _28
REMARK   11  A    between atoms: _28  and  _29
REMARK   12  A    between atoms: _28  and  _31
REMARK   13  A    between atoms: _31  and  _32
REMARK   14  A    between atoms: _36  and  NI_233
REMARK   15  A    between atoms: _37  and  _39
REMARK   16  A    between atoms: _39  and  _40
REMARK   17  A    between atoms: _39  and  _42
REMARK   18  A    between atoms: _42  and  _43
REMARK   19  A    between atoms: _46  and  _48
REMARK   20  A    between atoms: _48  and  _49
REMARK   21  A    between atoms: _48  and  _51
REMARK   22  A    between atoms: _51  and  _52
REMARK   23  A    between atoms: _52  and  _54
REMARK   24  A    between atoms: _54  and  NI_233
REMARK   25  A    between atoms: _55  and  _57
REMARK   26  A    between atoms: _57  and  _58
REMARK   27  A    between atoms: _57  and  _60
REMARK   28  A    between atoms: _60  and  _61
REMARK   29  A    between atoms: _64  and  _66
REMARK   30  A    between atoms: _66  and  _67
REMARK   31  A    between atoms: _66  and  _69
REMARK   32  A    between atoms: _71  and  _73
REMARK   33  A    between atoms: _73  and  _74
REMARK   34  A    between atoms: _73  and  _76
REMARK   35  A    between atoms: _76  and  _77
REMARK   36  A    between atoms: _79  and  _81
REMARK   37  A    between atoms: _81  and  _82
REMARK   38  A    between atoms: _81  and  _84
REMARK   39  A    between atoms: _87  and  _89
REMARK   40  A    between atoms: _89  and  _90
REMARK   41  A    between atoms: _89  and  _92
REMARK   42  A    between atoms: _92  and  _93
REMARK   43  A    between atoms: _96  and  _98
REMARK   44  A    between atoms: _98  and  _99
REMARK   45  A    between atoms: _98  and  _101
REMARK   46  A    between atoms: _101  and  _102
REMARK   47  A    between atoms: _105  and  _107
REMARK   48  A    between atoms: _107  and  _108
REMARK   49  A    between atoms: _111  and  _113
REMARK   50  A    between atoms: _113  and  _114
REMARK   51  A    between atoms: _113  and  _116
REMARK   52  A    between atoms: _116  and  _117
REMARK   53  A    between atoms: _120  and  _122
REMARK   54  A    between atoms: _122  and  _123
REMARK   55  A    between atoms: _122  and  _125
REMARK   56  A    between atoms: _125  and  _126
REMARK   57  A    between atoms: _131  and  _132
REMARK   58  A    between atoms: _134  and  _136
REMARK   59  A    between atoms: _136  and  _137
REMARK   60  A    between atoms: _136  and  _139
REMARK   61  A    between atoms: _139  and  _140
REMARK   62  A    between atoms: _146  and  _148
REMARK   63  A    between atoms: _148  and  _149
REMARK   64  A    between atoms: _148  and  _151
REMARK   65  A    between atoms: _151  and  _152
REMARK   66  A    between atoms: _152  and  _153
REMARK   67  A    between atoms: _155  and  _157
REMARK   68  A    between atoms: _157  and  _158
REMARK   69  A    between atoms: _160  and  _162
REMARK   70  A    between atoms: _162  and  _163
REMARK   71  A    between atoms: _162  and  _165
REMARK   72  A    between atoms: _165  and  _166
REMARK   73  A    between atoms: _166  and  _167
REMARK   74  A    between atoms: _172  and  _174
REMARK   75  A    between atoms: _174  and  _175
REMARK   76  A    between atoms: _177  and  _179
REMARK   77  A    between atoms: _179  and  _180
REMARK   78  A    between atoms: _179  and  _182
REMARK   79  A    between atoms: _182  and  _183
REMARK   80  A    between atoms: _189  and  _191
REMARK   81  A    between atoms: _191  and  _192
REMARK   82  A    between atoms: _191  and  _194
REMARK   83  A    between atoms: _194  and  _195
REMARK   84  A    between atoms: _200  and  _201
REMARK   85  A    between atoms: _203  and  _205
REMARK   86  A    between atoms: _205  and  _206
REMARK   87  A    between atoms: _205  and  _208
REMARK   88  A    between atoms: _211  and  _213
REMARK   89  A    between atoms: _213  and  _214
REMARK   90  A    between atoms: _217  and  _219
REMARK   91  A    between atoms: _219  and  _220
REMARK   92  A    between atoms: _219  and  _222
REMARK   93  A    between atoms: _222  and  _223
REMARK                            x       y       z     vdW  Elec       q    Type
REMARK                         _______ _______ _______ _____ _____    ______ ____
ROOT
ATOM      1  O   HOH     1       7.993   9.327  41.614  0.00  0.00    +0.000 OA
ENDROOT
TORSDOF 0
