REMARK  Name = ../refined-set-2016/3dc3/3dc3_pocket.pdb
REMARK  146 active torsions:
REMARK  status: ('A' for Active; 'I' for Inactive)
REMARK    1  A    between atoms: _1  and  _3
REMARK    2  A    between atoms: _3  and  _4
REMARK    3  A    between atoms: _3  and  _6
REMARK    4  A    between atoms: _6  and  _7
REMARK    5  A    between atoms: _17  and  _19
REMARK    6  A    between atoms: _19  and  _20
REMARK    7  A    between atoms: _19  and  _22
REMARK    8  A    between atoms: _22  and  _23
REMARK    9  A    between atoms: _28  and  _29
REMARK   10  A    between atoms: _31  and  _33
REMARK   11  A    between atoms: _33  and  _34
REMARK   12  A    between atoms: _33  and  _36
REMARK   13  A    between atoms: _36  and  _37
REMARK   14  A    between atoms: _40  and  _41
REMARK   15  A    between atoms: _46  and  _48
REMARK   16  A    between atoms: _48  and  _49
REMARK   17  A    between atoms: _48  and  _51
REMARK   18  A    between atoms: _51  and  _52
REMARK   19  A    between atoms: _57  and  _59
REMARK   20  A    between atoms: _59  and  _60
REMARK   21  A    between atoms: _59  and  _62
REMARK   22  A    between atoms: _62  and  _63
REMARK   23  A    between atoms: _65  and  _67
REMARK   24  A    between atoms: _67  and  _68
REMARK   25  A    between atoms: _67  and  _70
REMARK   26  A    between atoms: _70  and  _71
REMARK   27  A    between atoms: _71  and  _72
REMARK   28  A    between atoms: _77  and  _79
REMARK   29  A    between atoms: _79  and  _80
REMARK   30  A    between atoms: _79  and  _82
REMARK   31  A    between atoms: _82  and  _83
REMARK   32  A    between atoms: _86  and  _88
REMARK   33  A    between atoms: _88  and  _89
REMARK   34  A    between atoms: _88  and  _91
REMARK   35  A    between atoms: _91  and  _92
REMARK   36  A    between atoms: _92  and  _93
REMARK   37  A    between atoms: _98  and  _100
REMARK   38  A    between atoms: _100  and  _101
REMARK   39  A    between atoms: _100  and  _103
REMARK   40  A    between atoms: _103  and  _104
REMARK   41  A    between atoms: _110  and  _112
REMARK   42  A    between atoms: _123  and  _126
REMARK   43  A    between atoms: _126  and  _127
REMARK   44  A    between atoms: _135  and  _136
REMARK   45  A    between atoms: _144  and  _146
REMARK   46  A    between atoms: _146  and  _147
REMARK   47  A    between atoms: _146  and  _149
REMARK   48  A    between atoms: _149  and  _150
REMARK   49  A    between atoms: _150  and  _151
REMARK   50  A    between atoms: _154  and  _156
REMARK   51  A    between atoms: _156  and  _157
REMARK   52  A    between atoms: _156  and  _159
REMARK   53  A    between atoms: _159  and  _160
REMARK   54  A    between atoms: _165  and  _167
REMARK   55  A    between atoms: _167  and  _168
REMARK   56  A    between atoms: _167  and  _170
REMARK   57  A    between atoms: _170  and  _171
REMARK   58  A    between atoms: _171  and  _172
REMARK   59  A    between atoms: _175  and  _177
REMARK   60  A    between atoms: _177  and  _178
REMARK   61  A    between atoms: _177  and  _180
REMARK   62  A    between atoms: _180  and  _181
REMARK   63  A    between atoms: _184  and  _186
REMARK   64  A    between atoms: _186  and  _187
REMARK   65  A    between atoms: _186  and  _189
REMARK   66  A    between atoms: _189  and  _190
REMARK   67  A    between atoms: _191  and  ZN_406
REMARK   68  A    between atoms: _195  and  _197
REMARK   69  A    between atoms: _197  and  _198
REMARK   70  A    between atoms: _197  and  _200
REMARK   71  A    between atoms: _200  and  _201
REMARK   72  A    between atoms: _204  and  _206
REMARK   73  A    between atoms: _206  and  _207
REMARK   74  A    between atoms: _206  and  _209
REMARK   75  A    between atoms: _212  and  _214
REMARK   76  A    between atoms: _214  and  _215
REMARK   77  A    between atoms: _214  and  _217
REMARK   78  A    between atoms: _217  and  _218
REMARK   79  A    between atoms: _223  and  _225
REMARK   80  A    between atoms: _225  and  _226
REMARK   81  A    between atoms: _225  and  _228
REMARK   82  A    between atoms: _228  and  _229
REMARK   83  A    between atoms: _235  and  _237
REMARK   84  A    between atoms: _237  and  _238
REMARK   85  A    between atoms: _237  and  _240
REMARK   86  A    between atoms: _243  and  _245
REMARK   87  A    between atoms: _245  and  _246
REMARK   88  A    between atoms: _245  and  _248
REMARK   89  A    between atoms: _248  and  _249
REMARK   90  A    between atoms: _252  and  _254
REMARK   91  A    between atoms: _254  and  _255
REMARK   92  A    between atoms: _258  and  _260
REMARK   93  A    between atoms: _260  and  _261
REMARK   94  A    between atoms: _260  and  _263
REMARK   95  A    between atoms: _266  and  _268
REMARK   96  A    between atoms: _268  and  _269
REMARK   97  A    between atoms: _268  and  _271
REMARK   98  A    between atoms: _271  and  _272
REMARK   99  A    between atoms: _275  and  _277
REMARK  100  A    between atoms: _277  and  _278
REMARK  101  A    between atoms: _280  and  _282
REMARK  102  A    between atoms: _282  and  _283
REMARK  103  A    between atoms: _282  and  _285
REMARK  104  A    between atoms: _285  and  _286
REMARK  105  A    between atoms: _288  and  _290
REMARK  106  A    between atoms: _290  and  _291
REMARK  107  A    between atoms: _290  and  _293
REMARK  108  A    between atoms: _293  and  _294
REMARK  109  A    between atoms: _297  and  _299
REMARK  110  A    between atoms: _299  and  _300
REMARK  111  A    between atoms: _299  and  _302
REMARK  112  A    between atoms: _302  and  _303
REMARK  113  A    between atoms: _306  and  _308
REMARK  114  A    between atoms: _308  and  _309
REMARK  115  A    between atoms: _308  and  _311
REMARK  116  A    between atoms: _311  and  _312
REMARK  117  A    between atoms: _316  and  _317
REMARK  118  A    between atoms: _323  and  _324
REMARK  119  A    between atoms: _329  and  _331
REMARK  120  A    between atoms: _331  and  _332
REMARK  121  A    between atoms: _331  and  _334
REMARK  122  A    between atoms: _334  and  _335
REMARK  123  A    between atoms: _338  and  _340
REMARK  124  A    between atoms: _340  and  _341
REMARK  125  A    between atoms: _340  and  _343
REMARK  126  A    between atoms: _343  and  _344
REMARK  127  A    between atoms: _347  and  _349
REMARK  128  A    between atoms: _349  and  _350
REMARK  129  A    between atoms: _349  and  _352
REMARK  130  A    between atoms: _354  and  _356
REMARK  131  A    between atoms: _356  and  _357
REMARK  132  A    between atoms: _356  and  _359
REMARK  133  A    between atoms: _362  and  _364
REMARK  134  A    between atoms: _364  and  _365
REMARK  135  A    between atoms: _364  and  _367
REMARK  136  A    between atoms: _367  and  _368
REMARK  137  A    between atoms: _378  and  _380
REMARK  138  A    between atoms: _380  and  _381
REMARK  139  A    between atoms: _380  and  _383
REMARK  140  A    between atoms: _383  and  _384
REMARK  141  A    between atoms: _389  and  _391
REMARK  142  A    between atoms: _391  and  _392
REMARK  143  A    between atoms: _391  and  _394
REMARK  144  A    between atoms: _394  and  _395
REMARK  145  A    between atoms: _395  and  _396
REMARK  146  A    between atoms: _396  and  _397
REMARK                            x       y       z     vdW  Elec       q    Type
REMARK                         _______ _______ _______ _____ _____    ______ ____
ROOT
ATOM      1  CG  TRP A   1       5.831   0.013  12.232  0.00  0.00    -0.002 A 
ATOM      2  CD2 TRP A   1       4.453  -0.394  12.155  0.00  0.00    +0.013 A 
ATOM      3  CE3 TRP A   1       3.797  -1.604  12.385  0.00  0.00    +0.001 A 
ATOM      4  CZ3 TRP A   1       2.418  -1.646  12.210  0.00  0.00    +0.000 A 
ATOM      5  CH2 TRP A   1       1.690  -0.513  11.815  0.00  0.00    +0.001 A 
ATOM      6  CZ2 TRP A   1       2.317   0.685  11.588  0.00  0.00    +0.017 A 
ATOM      7  CE2 TRP A   1       3.702   0.733  11.761  0.00  0.00    +0.056 A 
ATOM      8  NE1 TRP A   1       4.588   1.767  11.612  0.00  0.00    -0.352 N 
ATOM      9  HE1 TRP A   1       4.337   2.735  11.328  0.00  0.00    +0.166 HD
ATOM     10  CD1 TRP A   1       5.860   1.329  11.895  0.00  0.00    +0.068 A 
ENDROOT
BRANCH   1  11
ATOM     11  CB  TRP A   1       6.970  -0.879  12.619  0.00  0.00    +0.053 C 
BRANCH  11  12
ATOM     12  CA  TRP A   1       7.671  -1.453  11.391  0.00  0.00    +0.137 C 
BRANCH  12  13
ATOM     13  N   TRP A   1       8.246  -0.389  10.577  0.00  0.00    -0.239 NA
ATOM     14  H   TRP A   1       7.870   0.579  10.640  0.00  0.00    +0.142 HD
ENDBRANCH  12  13
BRANCH  12  15
ATOM     15  C   TRP A   1       6.686  -2.266  10.577  0.00  0.00    +0.224 C 
ATOM     16  O   TRP A   1       6.180  -1.787   9.550  0.00  0.00    -0.287 OA
ENDBRANCH  12  15
ENDBRANCH  11  12
ENDBRANCH   1  11
TORSDOF 4
REMARK  Name = ../refined-set-2016/3dc3/3dc3_pocket.pdb
REMARK  146 active torsions:
REMARK  status: ('A' for Active; 'I' for Inactive)
REMARK    1  A    between atoms: _1  and  _3
REMARK    2  A    between atoms: _3  and  _4
REMARK    3  A    between atoms: _3  and  _6
REMARK    4  A    between atoms: _6  and  _7
REMARK    5  A    between atoms: _17  and  _19
REMARK    6  A    between atoms: _19  and  _20
REMARK    7  A    between atoms: _19  and  _22
REMARK    8  A    between atoms: _22  and  _23
REMARK    9  A    between atoms: _28  and  _29
REMARK   10  A    between atoms: _31  and  _33
REMARK   11  A    between atoms: _33  and  _34
REMARK   12  A    between atoms: _33  and  _36
REMARK   13  A    between atoms: _36  and  _37
REMARK   14  A    between atoms: _40  and  _41
REMARK   15  A    between atoms: _46  and  _48
REMARK   16  A    between atoms: _48  and  _49
REMARK   17  A    between atoms: _48  and  _51
REMARK   18  A    between atoms: _51  and  _52
REMARK   19  A    between atoms: _57  and  _59
REMARK   20  A    between atoms: _59  and  _60
REMARK   21  A    between atoms: _59  and  _62
REMARK   22  A    between atoms: _62  and  _63
REMARK   23  A    between atoms: _65  and  _67
REMARK   24  A    between atoms: _67  and  _68
REMARK   25  A    between atoms: _67  and  _70
REMARK   26  A    between atoms: _70  and  _71
REMARK   27  A    between atoms: _71  and  _72
REMARK   28  A    between atoms: _77  and  _79
REMARK   29  A    between atoms: _79  and  _80
REMARK   30  A    between atoms: _79  and  _82
REMARK   31  A    between atoms: _82  and  _83
REMARK   32  A    between atoms: _86  and  _88
REMARK   33  A    between atoms: _88  and  _89
REMARK   34  A    between atoms: _88  and  _91
REMARK   35  A    between atoms: _91  and  _92
REMARK   36  A    between atoms: _92  and  _93
REMARK   37  A    between atoms: _98  and  _100
REMARK   38  A    between atoms: _100  and  _101
REMARK   39  A    between atoms: _100  and  _103
REMARK   40  A    between atoms: _103  and  _104
REMARK   41  A    between atoms: _110  and  _112
REMARK   42  A    between atoms: _123  and  _126
REMARK   43  A    between atoms: _126  and  _127
REMARK   44  A    between atoms: _135  and  _136
REMARK   45  A    between atoms: _144  and  _146
REMARK   46  A    between atoms: _146  and  _147
REMARK   47  A    between atoms: _146  and  _149
REMARK   48  A    between atoms: _149  and  _150
REMARK   49  A    between atoms: _150  and  _151
REMARK   50  A    between atoms: _154  and  _156
REMARK   51  A    between atoms: _156  and  _157
REMARK   52  A    between atoms: _156  and  _159
REMARK   53  A    between atoms: _159  and  _160
REMARK   54  A    between atoms: _165  and  _167
REMARK   55  A    between atoms: _167  and  _168
REMARK   56  A    between atoms: _167  and  _170
REMARK   57  A    between atoms: _170  and  _171
REMARK   58  A    between atoms: _171  and  _172
REMARK   59  A    between atoms: _175  and  _177
REMARK   60  A    between atoms: _177  and  _178
REMARK   61  A    between atoms: _177  and  _180
REMARK   62  A    between atoms: _180  and  _181
REMARK   63  A    between atoms: _184  and  _186
REMARK   64  A    between atoms: _186  and  _187
REMARK   65  A    between atoms: _186  and  _189
REMARK   66  A    between atoms: _189  and  _190
REMARK   67  A    between atoms: _191  and  ZN_406
REMARK   68  A    between atoms: _195  and  _197
REMARK   69  A    between atoms: _197  and  _198
REMARK   70  A    between atoms: _197  and  _200
REMARK   71  A    between atoms: _200  and  _201
REMARK   72  A    between atoms: _204  and  _206
REMARK   73  A    between atoms: _206  and  _207
REMARK   74  A    between atoms: _206  and  _209
REMARK   75  A    between atoms: _212  and  _214
REMARK   76  A    between atoms: _214  and  _215
REMARK   77  A    between atoms: _214  and  _217
REMARK   78  A    between atoms: _217  and  _218
REMARK   79  A    between atoms: _223  and  _225
REMARK   80  A    between atoms: _225  and  _226
REMARK   81  A    between atoms: _225  and  _228
REMARK   82  A    between atoms: _228  and  _229
REMARK   83  A    between atoms: _235  and  _237
REMARK   84  A    between atoms: _237  and  _238
REMARK   85  A    between atoms: _237  and  _240
REMARK   86  A    between atoms: _243  and  _245
REMARK   87  A    between atoms: _245  and  _246
REMARK   88  A    between atoms: _245  and  _248
REMARK   89  A    between atoms: _248  and  _249
REMARK   90  A    between atoms: _252  and  _254
REMARK   91  A    between atoms: _254  and  _255
REMARK   92  A    between atoms: _258  and  _260
REMARK   93  A    between atoms: _260  and  _261
REMARK   94  A    between atoms: _260  and  _263
REMARK   95  A    between atoms: _266  and  _268
REMARK   96  A    between atoms: _268  and  _269
REMARK   97  A    between atoms: _268  and  _271
REMARK   98  A    between atoms: _271  and  _272
REMARK   99  A    between atoms: _275  and  _277
REMARK  100  A    between atoms: _277  and  _278
REMARK  101  A    between atoms: _280  and  _282
REMARK  102  A    between atoms: _282  and  _283
REMARK  103  A    between atoms: _282  and  _285
REMARK  104  A    between atoms: _285  and  _286
REMARK  105  A    between atoms: _288  and  _290
REMARK  106  A    between atoms: _290  and  _291
REMARK  107  A    between atoms: _290  and  _293
REMARK  108  A    between atoms: _293  and  _294
REMARK  109  A    between atoms: _297  and  _299
REMARK  110  A    between atoms: _299  and  _300
REMARK  111  A    between atoms: _299  and  _302
REMARK  112  A    between atoms: _302  and  _303
REMARK  113  A    between atoms: _306  and  _308
REMARK  114  A    between atoms: _308  and  _309
REMARK  115  A    between atoms: _308  and  _311
REMARK  116  A    between atoms: _311  and  _312
REMARK  117  A    between atoms: _316  and  _317
REMARK  118  A    between atoms: _323  and  _324
REMARK  119  A    between atoms: _329  and  _331
REMARK  120  A    between atoms: _331  and  _332
REMARK  121  A    between atoms: _331  and  _334
REMARK  122  A    between atoms: _334  and  _335
REMARK  123  A    between atoms: _338  and  _340
REMARK  124  A    between atoms: _340  and  _341
REMARK  125  A    between atoms: _340  and  _343
REMARK  126  A    between atoms: _343  and  _344
REMARK  127  A    between atoms: _347  and  _349
REMARK  128  A    between atoms: _349  and  _350
REMARK  129  A    between atoms: _349  and  _352
REMARK  130  A    between atoms: _354  and  _356
REMARK  131  A    between atoms: _356  and  _357
REMARK  132  A    between atoms: _356  and  _359
REMARK  133  A    between atoms: _362  and  _364
REMARK  134  A    between atoms: _364  and  _365
REMARK  135  A    between atoms: _364  and  _367
REMARK  136  A    between atoms: _367  and  _368
REMARK  137  A    between atoms: _378  and  _380
REMARK  138  A    between atoms: _380  and  _381
REMARK  139  A    between atoms: _380  and  _383
REMARK  140  A    between atoms: _383  and  _384
REMARK  141  A    between atoms: _389  and  _391
REMARK  142  A    between atoms: _391  and  _392
REMARK  143  A    between atoms: _391  and  _394
REMARK  144  A    between atoms: _394  and  _395
REMARK  145  A    between atoms: _395  and  _396
REMARK  146  A    between atoms: _396  and  _397
REMARK                            x       y       z     vdW  Elec       q    Type
REMARK                         _______ _______ _______ _____ _____    ______ ____
ROOT
ATOM      1  CG  TYR A   1       1.993  -7.021  12.048  0.00  0.00    -0.020 A 
ATOM      2  CD2 TYR A   1       1.555  -7.042  13.364  0.00  0.00    -0.001 A 
ATOM      3  CE2 TYR A   1       0.690  -6.030  13.793  0.00  0.00    +0.036 A 
ATOM      4  CZ  TYR A   1       0.257  -5.020  12.968  0.00  0.00    +0.134 A 
ATOM      5  CE1 TYR A   1       0.686  -4.977  11.656  0.00  0.00    +0.036 A 
ATOM      6  CD1 TYR A   1       1.540  -5.987  11.246  0.00  0.00    -0.001 A 
ENDROOT
BRANCH   4   7
ATOM      7  OH  TYR A   1      -0.595  -4.045  13.434  0.00  0.00    -0.506 OA
ATOM      8  HH  TYR A   1      -0.796  -3.408  12.704  0.00  0.00    +0.292 HD
ENDBRANCH   4   7
BRANCH   1   9
ATOM      9  CB  TYR A   1       2.930  -8.087  11.518  0.00  0.00    +0.051 C 
BRANCH   9  10
ATOM     10  CA  TYR A   1       4.415  -7.776  11.639  0.00  0.00    +0.137 C 
BRANCH  10  11
ATOM     11  N   TYR A   1       4.777  -6.642  10.786  0.00  0.00    -0.239 NA
ATOM     12  H   TYR A   1       4.779  -6.728   9.750  0.00  0.00    +0.142 HD
ENDBRANCH  10  11
BRANCH  10  13
ATOM     13  C   TYR A   1       5.238  -9.011  11.298  0.00  0.00    +0.224 C 
ATOM     14  O   TYR A   1       4.873 -10.118  11.700  0.00  0.00    -0.287 OA
ENDBRANCH  10  13
ENDBRANCH   9  10
ENDBRANCH   1   9
TORSDOF 5
REMARK  Name = ../refined-set-2016/3dc3/3dc3_pocket.pdb
REMARK  146 active torsions:
REMARK  status: ('A' for Active; 'I' for Inactive)
REMARK    1  A    between atoms: _1  and  _3
REMARK    2  A    between atoms: _3  and  _4
REMARK    3  A    between atoms: _3  and  _6
REMARK    4  A    between atoms: _6  and  _7
REMARK    5  A    between atoms: _17  and  _19
REMARK    6  A    between atoms: _19  and  _20
REMARK    7  A    between atoms: _19  and  _22
REMARK    8  A    between atoms: _22  and  _23
REMARK    9  A    between atoms: _28  and  _29
REMARK   10  A    between atoms: _31  and  _33
REMARK   11  A    between atoms: _33  and  _34
REMARK   12  A    between atoms: _33  and  _36
REMARK   13  A    between atoms: _36  and  _37
REMARK   14  A    between atoms: _40  and  _41
REMARK   15  A    between atoms: _46  and  _48
REMARK   16  A    between atoms: _48  and  _49
REMARK   17  A    between atoms: _48  and  _51
REMARK   18  A    between atoms: _51  and  _52
REMARK   19  A    between atoms: _57  and  _59
REMARK   20  A    between atoms: _59  and  _60
REMARK   21  A    between atoms: _59  and  _62
REMARK   22  A    between atoms: _62  and  _63
REMARK   23  A    between atoms: _65  and  _67
REMARK   24  A    between atoms: _67  and  _68
REMARK   25  A    between atoms: _67  and  _70
REMARK   26  A    between atoms: _70  and  _71
REMARK   27  A    between atoms: _71  and  _72
REMARK   28  A    between atoms: _77  and  _79
REMARK   29  A    between atoms: _79  and  _80
REMARK   30  A    between atoms: _79  and  _82
REMARK   31  A    between atoms: _82  and  _83
REMARK   32  A    between atoms: _86  and  _88
REMARK   33  A    between atoms: _88  and  _89
REMARK   34  A    between atoms: _88  and  _91
REMARK   35  A    between atoms: _91  and  _92
REMARK   36  A    between atoms: _92  and  _93
REMARK   37  A    between atoms: _98  and  _100
REMARK   38  A    between atoms: _100  and  _101
REMARK   39  A    between atoms: _100  and  _103
REMARK   40  A    between atoms: _103  and  _104
REMARK   41  A    between atoms: _110  and  _112
REMARK   42  A    between atoms: _123  and  _126
REMARK   43  A    between atoms: _126  and  _127
REMARK   44  A    between atoms: _135  and  _136
REMARK   45  A    between atoms: _144  and  _146
REMARK   46  A    between atoms: _146  and  _147
REMARK   47  A    between atoms: _146  and  _149
REMARK   48  A    between atoms: _149  and  _150
REMARK   49  A    between atoms: _150  and  _151
REMARK   50  A    between atoms: _154  and  _156
REMARK   51  A    between atoms: _156  and  _157
REMARK   52  A    between atoms: _156  and  _159
REMARK   53  A    between atoms: _159  and  _160
REMARK   54  A    between atoms: _165  and  _167
REMARK   55  A    between atoms: _167  and  _168
REMARK   56  A    between atoms: _167  and  _170
REMARK   57  A    between atoms: _170  and  _171
REMARK   58  A    between atoms: _171  and  _172
REMARK   59  A    between atoms: _175  and  _177
REMARK   60  A    between atoms: _177  and  _178
REMARK   61  A    between atoms: _177  and  _180
REMARK   62  A    between atoms: _180  and  _181
REMARK   63  A    between atoms: _184  and  _186
REMARK   64  A    between atoms: _186  and  _187
REMARK   65  A    between atoms: _186  and  _189
REMARK   66  A    between atoms: _189  and  _190
REMARK   67  A    between atoms: _191  and  ZN_406
REMARK   68  A    between atoms: _195  and  _197
REMARK   69  A    between atoms: _197  and  _198
REMARK   70  A    between atoms: _197  and  _200
REMARK   71  A    between atoms: _200  and  _201
REMARK   72  A    between atoms: _204  and  _206
REMARK   73  A    between atoms: _206  and  _207
REMARK   74  A    between atoms: _206  and  _209
REMARK   75  A    between atoms: _212  and  _214
REMARK   76  A    between atoms: _214  and  _215
REMARK   77  A    between atoms: _214  and  _217
REMARK   78  A    between atoms: _217  and  _218
REMARK   79  A    between atoms: _223  and  _225
REMARK   80  A    between atoms: _225  and  _226
REMARK   81  A    between atoms: _225  and  _228
REMARK   82  A    between atoms: _228  and  _229
REMARK   83  A    between atoms: _235  and  _237
REMARK   84  A    between atoms: _237  and  _238
REMARK   85  A    between atoms: _237  and  _240
REMARK   86  A    between atoms: _243  and  _245
REMARK   87  A    between atoms: _245  and  _246
REMARK   88  A    between atoms: _245  and  _248
REMARK   89  A    between atoms: _248  and  _249
REMARK   90  A    between atoms: _252  and  _254
REMARK   91  A    between atoms: _254  and  _255
REMARK   92  A    between atoms: _258  and  _260
REMARK   93  A    between atoms: _260  and  _261
REMARK   94  A    between atoms: _260  and  _263
REMARK   95  A    between atoms: _266  and  _268
REMARK   96  A    between atoms: _268  and  _269
REMARK   97  A    between atoms: _268  and  _271
REMARK   98  A    between atoms: _271  and  _272
REMARK   99  A    between atoms: _275  and  _277
REMARK  100  A    between atoms: _277  and  _278
REMARK  101  A    between atoms: _280  and  _282
REMARK  102  A    between atoms: _282  and  _283
REMARK  103  A    between atoms: _282  and  _285
REMARK  104  A    between atoms: _285  and  _286
REMARK  105  A    between atoms: _288  and  _290
REMARK  106  A    between atoms: _290  and  _291
REMARK  107  A    between atoms: _290  and  _293
REMARK  108  A    between atoms: _293  and  _294
REMARK  109  A    between atoms: _297  and  _299
REMARK  110  A    between atoms: _299  and  _300
REMARK  111  A    between atoms: _299  and  _302
REMARK  112  A    between atoms: _302  and  _303
REMARK  113  A    between atoms: _306  and  _308
REMARK  114  A    between atoms: _308  and  _309
REMARK  115  A    between atoms: _308  and  _311
REMARK  116  A    between atoms: _311  and  _312
REMARK  117  A    between atoms: _316  and  _317
REMARK  118  A    between atoms: _323  and  _324
REMARK  119  A    between atoms: _329  and  _331
REMARK  120  A    between atoms: _331  and  _332
REMARK  121  A    between atoms: _331  and  _334
REMARK  122  A    between atoms: _334  and  _335
REMARK  123  A    between atoms: _338  and  _340
REMARK  124  A    between atoms: _340  and  _341
REMARK  125  A    between atoms: _340  and  _343
REMARK  126  A    between atoms: _343  and  _344
REMARK  127  A    between atoms: _347  and  _349
REMARK  128  A    between atoms: _349  and  _350
REMARK  129  A    between atoms: _349  and  _352
REMARK  130  A    between atoms: _354  and  _356
REMARK  131  A    between atoms: _356  and  _357
REMARK  132  A    between atoms: _356  and  _359
REMARK  133  A    between atoms: _362  and  _364
REMARK  134  A    between atoms: _364  and  _365
REMARK  135  A    between atoms: _364  and  _367
REMARK  136  A    between atoms: _367  and  _368
REMARK  137  A    between atoms: _378  and  _380
REMARK  138  A    between atoms: _380  and  _381
REMARK  139  A    between atoms: _380  and  _383
REMARK  140  A    between atoms: _383  and  _384
REMARK  141  A    between atoms: _389  and  _391
REMARK  142  A    between atoms: _391  and  _392
REMARK  143  A    between atoms: _391  and  _394
REMARK  144  A    between atoms: _394  and  _395
REMARK  145  A    between atoms: _395  and  _396
REMARK  146  A    between atoms: _396  and  _397
REMARK                            x       y       z     vdW  Elec       q    Type
REMARK                         _______ _______ _______ _____ _____    ______ ____
ROOT
ATOM      1  C   SER A   1      -2.308  -3.198  23.413  0.00  0.00    +0.244 C 
ATOM      2  N   PRO A   2      -2.916  -4.343  23.129  0.00  0.00    -0.273 N 
ATOM      3  CA  PRO A   2      -4.122  -4.821  23.797  0.00  0.00    +0.140 C 
ATOM      4  CB  PRO A   2      -4.676  -5.813  22.766  0.00  0.00    +0.030 C 
ATOM      5  CG  PRO A   2      -3.427  -6.424  22.167  0.00  0.00    +0.024 C 
ATOM      6  CD  PRO A   2      -2.468  -5.272  22.064  0.00  0.00    +0.094 C 
ATOM      7  O   SER A   1      -1.309  -2.812  22.800  0.00  0.00    -0.273 OA
ENDROOT
BRANCH   3   8
ATOM      8  C   PRO A   2      -3.779  -5.541  25.098  0.00  0.00    +0.227 C 
ATOM      9  O   PRO A   2      -2.601  -5.595  25.453  0.00  0.00    -0.286 OA
ENDBRANCH   3   8
BRANCH   1  10
ATOM     10  CA  SER A   1      -2.873  -2.277  24.493  0.00  0.00    +0.175 C 
BRANCH  10  11
ATOM     11  N   SER A   1      -1.850  -1.379  24.998  0.00  0.00    -0.236 NA
ATOM     12  H   SER A   1      -1.410  -0.730  24.315  0.00  0.00    +0.142 HD
ENDBRANCH  10  11
BRANCH  10  13
ATOM     13  CB  SER A   1      -4.033  -1.483  23.857  0.00  0.00    +0.163 C 
BRANCH  13  14
ATOM     14  OG  SER A   1      -4.672  -0.731  24.891  0.00  0.00    -0.380 OA
ATOM     15  H   SER A   1      -5.019  -1.350  25.582  0.00  0.00    +0.211 HD
ENDBRANCH  13  14
ENDBRANCH  10  13
ENDBRANCH   1  10
TORSDOF 5
REMARK  Name = ../refined-set-2016/3dc3/3dc3_pocket.pdb
REMARK  146 active torsions:
REMARK  status: ('A' for Active; 'I' for Inactive)
REMARK    1  A    between atoms: _1  and  _3
REMARK    2  A    between atoms: _3  and  _4
REMARK    3  A    between atoms: _3  and  _6
REMARK    4  A    between atoms: _6  and  _7
REMARK    5  A    between atoms: _17  and  _19
REMARK    6  A    between atoms: _19  and  _20
REMARK    7  A    between atoms: _19  and  _22
REMARK    8  A    between atoms: _22  and  _23
REMARK    9  A    between atoms: _28  and  _29
REMARK   10  A    between atoms: _31  and  _33
REMARK   11  A    between atoms: _33  and  _34
REMARK   12  A    between atoms: _33  and  _36
REMARK   13  A    between atoms: _36  and  _37
REMARK   14  A    between atoms: _40  and  _41
REMARK   15  A    between atoms: _46  and  _48
REMARK   16  A    between atoms: _48  and  _49
REMARK   17  A    between atoms: _48  and  _51
REMARK   18  A    between atoms: _51  and  _52
REMARK   19  A    between atoms: _57  and  _59
REMARK   20  A    between atoms: _59  and  _60
REMARK   21  A    between atoms: _59  and  _62
REMARK   22  A    between atoms: _62  and  _63
REMARK   23  A    between atoms: _65  and  _67
REMARK   24  A    between atoms: _67  and  _68
REMARK   25  A    between atoms: _67  and  _70
REMARK   26  A    between atoms: _70  and  _71
REMARK   27  A    between atoms: _71  and  _72
REMARK   28  A    between atoms: _77  and  _79
REMARK   29  A    between atoms: _79  and  _80
REMARK   30  A    between atoms: _79  and  _82
REMARK   31  A    between atoms: _82  and  _83
REMARK   32  A    between atoms: _86  and  _88
REMARK   33  A    between atoms: _88  and  _89
REMARK   34  A    between atoms: _88  and  _91
REMARK   35  A    between atoms: _91  and  _92
REMARK   36  A    between atoms: _92  and  _93
REMARK   37  A    between atoms: _98  and  _100
REMARK   38  A    between atoms: _100  and  _101
REMARK   39  A    between atoms: _100  and  _103
REMARK   40  A    between atoms: _103  and  _104
REMARK   41  A    between atoms: _110  and  _112
REMARK   42  A    between atoms: _123  and  _126
REMARK   43  A    between atoms: _126  and  _127
REMARK   44  A    between atoms: _135  and  _136
REMARK   45  A    between atoms: _144  and  _146
REMARK   46  A    between atoms: _146  and  _147
REMARK   47  A    between atoms: _146  and  _149
REMARK   48  A    between atoms: _149  and  _150
REMARK   49  A    between atoms: _150  and  _151
REMARK   50  A    between atoms: _154  and  _156
REMARK   51  A    between atoms: _156  and  _157
REMARK   52  A    between atoms: _156  and  _159
REMARK   53  A    between atoms: _159  and  _160
REMARK   54  A    between atoms: _165  and  _167
REMARK   55  A    between atoms: _167  and  _168
REMARK   56  A    between atoms: _167  and  _170
REMARK   57  A    between atoms: _170  and  _171
REMARK   58  A    between atoms: _171  and  _172
REMARK   59  A    between atoms: _175  and  _177
REMARK   60  A    between atoms: _177  and  _178
REMARK   61  A    between atoms: _177  and  _180
REMARK   62  A    between atoms: _180  and  _181
REMARK   63  A    between atoms: _184  and  _186
REMARK   64  A    between atoms: _186  and  _187
REMARK   65  A    between atoms: _186  and  _189
REMARK   66  A    between atoms: _189  and  _190
REMARK   67  A    between atoms: _191  and  ZN_406
REMARK   68  A    between atoms: _195  and  _197
REMARK   69  A    between atoms: _197  and  _198
REMARK   70  A    between atoms: _197  and  _200
REMARK   71  A    between atoms: _200  and  _201
REMARK   72  A    between atoms: _204  and  _206
REMARK   73  A    between atoms: _206  and  _207
REMARK   74  A    between atoms: _206  and  _209
REMARK   75  A    between atoms: _212  and  _214
REMARK   76  A    between atoms: _214  and  _215
REMARK   77  A    between atoms: _214  and  _217
REMARK   78  A    between atoms: _217  and  _218
REMARK   79  A    between atoms: _223  and  _225
REMARK   80  A    between atoms: _225  and  _226
REMARK   81  A    between atoms: _225  and  _228
REMARK   82  A    between atoms: _228  and  _229
REMARK   83  A    between atoms: _235  and  _237
REMARK   84  A    between atoms: _237  and  _238
REMARK   85  A    between atoms: _237  and  _240
REMARK   86  A    between atoms: _243  and  _245
REMARK   87  A    between atoms: _245  and  _246
REMARK   88  A    between atoms: _245  and  _248
REMARK   89  A    between atoms: _248  and  _249
REMARK   90  A    between atoms: _252  and  _254
REMARK   91  A    between atoms: _254  and  _255
REMARK   92  A    between atoms: _258  and  _260
REMARK   93  A    between atoms: _260  and  _261
REMARK   94  A    between atoms: _260  and  _263
REMARK   95  A    between atoms: _266  and  _268
REMARK   96  A    between atoms: _268  and  _269
REMARK   97  A    between atoms: _268  and  _271
REMARK   98  A    between atoms: _271  and  _272
REMARK   99  A    between atoms: _275  and  _277
REMARK  100  A    between atoms: _277  and  _278
REMARK  101  A    between atoms: _280  and  _282
REMARK  102  A    between atoms: _282  and  _283
REMARK  103  A    between atoms: _282  and  _285
REMARK  104  A    between atoms: _285  and  _286
REMARK  105  A    between atoms: _288  and  _290
REMARK  106  A    between atoms: _290  and  _291
REMARK  107  A    between atoms: _290  and  _293
REMARK  108  A    between atoms: _293  and  _294
REMARK  109  A    between atoms: _297  and  _299
REMARK  110  A    between atoms: _299  and  _300
REMARK  111  A    between atoms: _299  and  _302
REMARK  112  A    between atoms: _302  and  _303
REMARK  113  A    between atoms: _306  and  _308
REMARK  114  A    between atoms: _308  and  _309
REMARK  115  A    between atoms: _308  and  _311
REMARK  116  A    between atoms: _311  and  _312
REMARK  117  A    between atoms: _316  and  _317
REMARK  118  A    between atoms: _323  and  _324
REMARK  119  A    between atoms: _329  and  _331
REMARK  120  A    between atoms: _331  and  _332
REMARK  121  A    between atoms: _331  and  _334
REMARK  122  A    between atoms: _334  and  _335
REMARK  123  A    between atoms: _338  and  _340
REMARK  124  A    between atoms: _340  and  _341
REMARK  125  A    between atoms: _340  and  _343
REMARK  126  A    between atoms: _343  and  _344
REMARK  127  A    between atoms: _347  and  _349
REMARK  128  A    between atoms: _349  and  _350
REMARK  129  A    between atoms: _349  and  _352
REMARK  130  A    between atoms: _354  and  _356
REMARK  131  A    between atoms: _356  and  _357
REMARK  132  A    between atoms: _356  and  _359
REMARK  133  A    between atoms: _362  and  _364
REMARK  134  A    between atoms: _364  and  _365
REMARK  135  A    between atoms: _364  and  _367
REMARK  136  A    between atoms: _367  and  _368
REMARK  137  A    between atoms: _378  and  _380
REMARK  138  A    between atoms: _380  and  _381
REMARK  139  A    between atoms: _380  and  _383
REMARK  140  A    between atoms: _383  and  _384
REMARK  141  A    between atoms: _389  and  _391
REMARK  142  A    between atoms: _391  and  _392
REMARK  143  A    between atoms: _391  and  _394
REMARK  144  A    between atoms: _394  and  _395
REMARK  145  A    between atoms: _395  and  _396
REMARK  146  A    between atoms: _396  and  _397
REMARK                            x       y       z     vdW  Elec       q    Type
REMARK                         _______ _______ _______ _____ _____    ______ ____
ROOT
ATOM      1  CB  ASN A   1      -3.137   1.892   5.541  0.00  0.00    +0.110 C 
ENDROOT
BRANCH   1   2
ATOM      2  CG  ASN A   1      -3.423   0.939   6.686  0.00  0.00    +0.221 C 
ATOM      3  ND2 ASN A   1      -4.451   1.218   7.476  0.00  0.00    -0.329 N 
ATOM      4 HD21 ASN A   1      -4.688   0.583   8.264  0.00  0.00    +0.145 HD
ATOM      5 HD22 ASN A   1      -5.020   2.072   7.307  0.00  0.00    +0.145 HD
ATOM      6  OD1 ASN A   1      -2.727  -0.057   6.850  0.00  0.00    -0.275 OA
ENDBRANCH   1   2
BRANCH   1   7
ATOM      7  CA  ASN A   1      -2.710   1.175   4.260  0.00  0.00    +0.142 C 
BRANCH   7   8
ATOM      8  N   ASN A   1      -3.736   0.243   3.785  0.00  0.00    -0.239 NA
ATOM      9  H   ASN A   1      -4.270  -0.355   4.448  0.00  0.00    +0.142 HD
ENDBRANCH   7   8
BRANCH   7  10
ATOM     10  C   ASN A   1      -1.364   0.477   4.469  0.00  0.00    +0.225 C 
ATOM     11  O   ASN A   1      -0.458   1.117   5.008  0.00  0.00    -0.287 OA
ENDBRANCH   7  10
ENDBRANCH   1   7
TORSDOF 4
REMARK  Name = ../refined-set-2016/3dc3/3dc3_pocket.pdb
REMARK  146 active torsions:
REMARK  status: ('A' for Active; 'I' for Inactive)
REMARK    1  A    between atoms: _1  and  _3
REMARK    2  A    between atoms: _3  and  _4
REMARK    3  A    between atoms: _3  and  _6
REMARK    4  A    between atoms: _6  and  _7
REMARK    5  A    between atoms: _17  and  _19
REMARK    6  A    between atoms: _19  and  _20
REMARK    7  A    between atoms: _19  and  _22
REMARK    8  A    between atoms: _22  and  _23
REMARK    9  A    between atoms: _28  and  _29
REMARK   10  A    between atoms: _31  and  _33
REMARK   11  A    between atoms: _33  and  _34
REMARK   12  A    between atoms: _33  and  _36
REMARK   13  A    between atoms: _36  and  _37
REMARK   14  A    between atoms: _40  and  _41
REMARK   15  A    between atoms: _46  and  _48
REMARK   16  A    between atoms: _48  and  _49
REMARK   17  A    between atoms: _48  and  _51
REMARK   18  A    between atoms: _51  and  _52
REMARK   19  A    between atoms: _57  and  _59
REMARK   20  A    between atoms: _59  and  _60
REMARK   21  A    between atoms: _59  and  _62
REMARK   22  A    between atoms: _62  and  _63
REMARK   23  A    between atoms: _65  and  _67
REMARK   24  A    between atoms: _67  and  _68
REMARK   25  A    between atoms: _67  and  _70
REMARK   26  A    between atoms: _70  and  _71
REMARK   27  A    between atoms: _71  and  _72
REMARK   28  A    between atoms: _77  and  _79
REMARK   29  A    between atoms: _79  and  _80
REMARK   30  A    between atoms: _79  and  _82
REMARK   31  A    between atoms: _82  and  _83
REMARK   32  A    between atoms: _86  and  _88
REMARK   33  A    between atoms: _88  and  _89
REMARK   34  A    between atoms: _88  and  _91
REMARK   35  A    between atoms: _91  and  _92
REMARK   36  A    between atoms: _92  and  _93
REMARK   37  A    between atoms: _98  and  _100
REMARK   38  A    between atoms: _100  and  _101
REMARK   39  A    between atoms: _100  and  _103
REMARK   40  A    between atoms: _103  and  _104
REMARK   41  A    between atoms: _110  and  _112
REMARK   42  A    between atoms: _123  and  _126
REMARK   43  A    between atoms: _126  and  _127
REMARK   44  A    between atoms: _135  and  _136
REMARK   45  A    between atoms: _144  and  _146
REMARK   46  A    between atoms: _146  and  _147
REMARK   47  A    between atoms: _146  and  _149
REMARK   48  A    between atoms: _149  and  _150
REMARK   49  A    between atoms: _150  and  _151
REMARK   50  A    between atoms: _154  and  _156
REMARK   51  A    between atoms: _156  and  _157
REMARK   52  A    between atoms: _156  and  _159
REMARK   53  A    between atoms: _159  and  _160
REMARK   54  A    between atoms: _165  and  _167
REMARK   55  A    between atoms: _167  and  _168
REMARK   56  A    between atoms: _167  and  _170
REMARK   57  A    between atoms: _170  and  _171
REMARK   58  A    between atoms: _171  and  _172
REMARK   59  A    between atoms: _175  and  _177
REMARK   60  A    between atoms: _177  and  _178
REMARK   61  A    between atoms: _177  and  _180
REMARK   62  A    between atoms: _180  and  _181
REMARK   63  A    between atoms: _184  and  _186
REMARK   64  A    between atoms: _186  and  _187
REMARK   65  A    between atoms: _186  and  _189
REMARK   66  A    between atoms: _189  and  _190
REMARK   67  A    between atoms: _191  and  ZN_406
REMARK   68  A    between atoms: _195  and  _197
REMARK   69  A    between atoms: _197  and  _198
REMARK   70  A    between atoms: _197  and  _200
REMARK   71  A    between atoms: _200  and  _201
REMARK   72  A    between atoms: _204  and  _206
REMARK   73  A    between atoms: _206  and  _207
REMARK   74  A    between atoms: _206  and  _209
REMARK   75  A    between atoms: _212  and  _214
REMARK   76  A    between atoms: _214  and  _215
REMARK   77  A    between atoms: _214  and  _217
REMARK   78  A    between atoms: _217  and  _218
REMARK   79  A    between atoms: _223  and  _225
REMARK   80  A    between atoms: _225  and  _226
REMARK   81  A    between atoms: _225  and  _228
REMARK   82  A    between atoms: _228  and  _229
REMARK   83  A    between atoms: _235  and  _237
REMARK   84  A    between atoms: _237  and  _238
REMARK   85  A    between atoms: _237  and  _240
REMARK   86  A    between atoms: _243  and  _245
REMARK   87  A    between atoms: _245  and  _246
REMARK   88  A    between atoms: _245  and  _248
REMARK   89  A    between atoms: _248  and  _249
REMARK   90  A    between atoms: _252  and  _254
REMARK   91  A    between atoms: _254  and  _255
REMARK   92  A    between atoms: _258  and  _260
REMARK   93  A    between atoms: _260  and  _261
REMARK   94  A    between atoms: _260  and  _263
REMARK   95  A    between atoms: _266  and  _268
REMARK   96  A    between atoms: _268  and  _269
REMARK   97  A    between atoms: _268  and  _271
REMARK   98  A    between atoms: _271  and  _272
REMARK   99  A    between atoms: _275  and  _277
REMARK  100  A    between atoms: _277  and  _278
REMARK  101  A    between atoms: _280  and  _282
REMARK  102  A    between atoms: _282  and  _283
REMARK  103  A    between atoms: _282  and  _285
REMARK  104  A    between atoms: _285  and  _286
REMARK  105  A    between atoms: _288  and  _290
REMARK  106  A    between atoms: _290  and  _291
REMARK  107  A    between atoms: _290  and  _293
REMARK  108  A    between atoms: _293  and  _294
REMARK  109  A    between atoms: _297  and  _299
REMARK  110  A    between atoms: _299  and  _300
REMARK  111  A    between atoms: _299  and  _302
REMARK  112  A    between atoms: _302  and  _303
REMARK  113  A    between atoms: _306  and  _308
REMARK  114  A    between atoms: _308  and  _309
REMARK  115  A    between atoms: _308  and  _311
REMARK  116  A    between atoms: _311  and  _312
REMARK  117  A    between atoms: _316  and  _317
REMARK  118  A    between atoms: _323  and  _324
REMARK  119  A    between atoms: _329  and  _331
REMARK  120  A    between atoms: _331  and  _332
REMARK  121  A    between atoms: _331  and  _334
REMARK  122  A    between atoms: _334  and  _335
REMARK  123  A    between atoms: _338  and  _340
REMARK  124  A    between atoms: _340  and  _341
REMARK  125  A    between atoms: _340  and  _343
REMARK  126  A    between atoms: _343  and  _344
REMARK  127  A    between atoms: _347  and  _349
REMARK  128  A    between atoms: _349  and  _350
REMARK  129  A    between atoms: _349  and  _352
REMARK  130  A    between atoms: _354  and  _356
REMARK  131  A    between atoms: _356  and  _357
REMARK  132  A    between atoms: _356  and  _359
REMARK  133  A    between atoms: _362  and  _364
REMARK  134  A    between atoms: _364  and  _365
REMARK  135  A    between atoms: _364  and  _367
REMARK  136  A    between atoms: _367  and  _368
REMARK  137  A    between atoms: _378  and  _380
REMARK  138  A    between atoms: _380  and  _381
REMARK  139  A    between atoms: _380  and  _383
REMARK  140  A    between atoms: _383  and  _384
REMARK  141  A    between atoms: _389  and  _391
REMARK  142  A    between atoms: _391  and  _392
REMARK  143  A    between atoms: _391  and  _394
REMARK  144  A    between atoms: _394  and  _395
REMARK  145  A    between atoms: _395  and  _396
REMARK  146  A    between atoms: _396  and  _397
REMARK                            x       y       z     vdW  Elec       q    Type
REMARK                         _______ _______ _______ _____ _____    ______ ____
ROOT
ATOM      1  CA  SER A   1      -4.599  -3.338   7.484  0.00  0.00    +0.163 C 
ENDROOT
BRANCH   1   2
ATOM      2  N   SER A   1      -3.233  -2.826   7.466  0.00  0.00    -0.237 NA
ATOM      3  H   SER A   1      -3.064  -1.841   7.176  0.00  0.00    +0.142 HD
ENDBRANCH   1   2
BRANCH   1   4
ATOM      4  C   SER A   1      -5.353  -2.704   6.317  0.00  0.00    +0.227 C 
ATOM      5  O   SER A   1      -4.672  -2.170   5.436  0.00  0.00    -0.287 OA
ENDBRANCH   1   4
BRANCH   1   6
ATOM      6  CB  SER A   1      -5.273  -3.047   8.819  0.00  0.00    +0.162 C 
BRANCH   6   7
ATOM      7  OG  SER A   1      -6.599  -3.545   8.867  0.00  0.00    -0.380 OA
ATOM      8  H   SER A   1      -6.998  -3.335   9.748  0.00  0.00    +0.211 HD
ENDBRANCH   6   7
ENDBRANCH   1   6
TORSDOF 4
REMARK  Name = ../refined-set-2016/3dc3/3dc3_pocket.pdb
REMARK  146 active torsions:
REMARK  status: ('A' for Active; 'I' for Inactive)
REMARK    1  A    between atoms: _1  and  _3
REMARK    2  A    between atoms: _3  and  _4
REMARK    3  A    between atoms: _3  and  _6
REMARK    4  A    between atoms: _6  and  _7
REMARK    5  A    between atoms: _17  and  _19
REMARK    6  A    between atoms: _19  and  _20
REMARK    7  A    between atoms: _19  and  _22
REMARK    8  A    between atoms: _22  and  _23
REMARK    9  A    between atoms: _28  and  _29
REMARK   10  A    between atoms: _31  and  _33
REMARK   11  A    between atoms: _33  and  _34
REMARK   12  A    between atoms: _33  and  _36
REMARK   13  A    between atoms: _36  and  _37
REMARK   14  A    between atoms: _40  and  _41
REMARK   15  A    between atoms: _46  and  _48
REMARK   16  A    between atoms: _48  and  _49
REMARK   17  A    between atoms: _48  and  _51
REMARK   18  A    between atoms: _51  and  _52
REMARK   19  A    between atoms: _57  and  _59
REMARK   20  A    between atoms: _59  and  _60
REMARK   21  A    between atoms: _59  and  _62
REMARK   22  A    between atoms: _62  and  _63
REMARK   23  A    between atoms: _65  and  _67
REMARK   24  A    between atoms: _67  and  _68
REMARK   25  A    between atoms: _67  and  _70
REMARK   26  A    between atoms: _70  and  _71
REMARK   27  A    between atoms: _71  and  _72
REMARK   28  A    between atoms: _77  and  _79
REMARK   29  A    between atoms: _79  and  _80
REMARK   30  A    between atoms: _79  and  _82
REMARK   31  A    between atoms: _82  and  _83
REMARK   32  A    between atoms: _86  and  _88
REMARK   33  A    between atoms: _88  and  _89
REMARK   34  A    between atoms: _88  and  _91
REMARK   35  A    between atoms: _91  and  _92
REMARK   36  A    between atoms: _92  and  _93
REMARK   37  A    between atoms: _98  and  _100
REMARK   38  A    between atoms: _100  and  _101
REMARK   39  A    between atoms: _100  and  _103
REMARK   40  A    between atoms: _103  and  _104
REMARK   41  A    between atoms: _110  and  _112
REMARK   42  A    between atoms: _123  and  _126
REMARK   43  A    between atoms: _126  and  _127
REMARK   44  A    between atoms: _135  and  _136
REMARK   45  A    between atoms: _144  and  _146
REMARK   46  A    between atoms: _146  and  _147
REMARK   47  A    between atoms: _146  and  _149
REMARK   48  A    between atoms: _149  and  _150
REMARK   49  A    between atoms: _150  and  _151
REMARK   50  A    between atoms: _154  and  _156
REMARK   51  A    between atoms: _156  and  _157
REMARK   52  A    between atoms: _156  and  _159
REMARK   53  A    between atoms: _159  and  _160
REMARK   54  A    between atoms: _165  and  _167
REMARK   55  A    between atoms: _167  and  _168
REMARK   56  A    between atoms: _167  and  _170
REMARK   57  A    between atoms: _170  and  _171
REMARK   58  A    between atoms: _171  and  _172
REMARK   59  A    between atoms: _175  and  _177
REMARK   60  A    between atoms: _177  and  _178
REMARK   61  A    between atoms: _177  and  _180
REMARK   62  A    between atoms: _180  and  _181
REMARK   63  A    between atoms: _184  and  _186
REMARK   64  A    between atoms: _186  and  _187
REMARK   65  A    between atoms: _186  and  _189
REMARK   66  A    between atoms: _189  and  _190
REMARK   67  A    between atoms: _191  and  ZN_406
REMARK   68  A    between atoms: _195  and  _197
REMARK   69  A    between atoms: _197  and  _198
REMARK   70  A    between atoms: _197  and  _200
REMARK   71  A    between atoms: _200  and  _201
REMARK   72  A    between atoms: _204  and  _206
REMARK   73  A    between atoms: _206  and  _207
REMARK   74  A    between atoms: _206  and  _209
REMARK   75  A    between atoms: _212  and  _214
REMARK   76  A    between atoms: _214  and  _215
REMARK   77  A    between atoms: _214  and  _217
REMARK   78  A    between atoms: _217  and  _218
REMARK   79  A    between atoms: _223  and  _225
REMARK   80  A    between atoms: _225  and  _226
REMARK   81  A    between atoms: _225  and  _228
REMARK   82  A    between atoms: _228  and  _229
REMARK   83  A    between atoms: _235  and  _237
REMARK   84  A    between atoms: _237  and  _238
REMARK   85  A    between atoms: _237  and  _240
REMARK   86  A    between atoms: _243  and  _245
REMARK   87  A    between atoms: _245  and  _246
REMARK   88  A    between atoms: _245  and  _248
REMARK   89  A    between atoms: _248  and  _249
REMARK   90  A    between atoms: _252  and  _254
REMARK   91  A    between atoms: _254  and  _255
REMARK   92  A    between atoms: _258  and  _260
REMARK   93  A    between atoms: _260  and  _261
REMARK   94  A    between atoms: _260  and  _263
REMARK   95  A    between atoms: _266  and  _268
REMARK   96  A    between atoms: _268  and  _269
REMARK   97  A    between atoms: _268  and  _271
REMARK   98  A    between atoms: _271  and  _272
REMARK   99  A    between atoms: _275  and  _277
REMARK  100  A    between atoms: _277  and  _278
REMARK  101  A    between atoms: _280  and  _282
REMARK  102  A    between atoms: _282  and  _283
REMARK  103  A    between atoms: _282  and  _285
REMARK  104  A    between atoms: _285  and  _286
REMARK  105  A    between atoms: _288  and  _290
REMARK  106  A    between atoms: _290  and  _291
REMARK  107  A    between atoms: _290  and  _293
REMARK  108  A    between atoms: _293  and  _294
REMARK  109  A    between atoms: _297  and  _299
REMARK  110  A    between atoms: _299  and  _300
REMARK  111  A    between atoms: _299  and  _302
REMARK  112  A    between atoms: _302  and  _303
REMARK  113  A    between atoms: _306  and  _308
REMARK  114  A    between atoms: _308  and  _309
REMARK  115  A    between atoms: _308  and  _311
REMARK  116  A    between atoms: _311  and  _312
REMARK  117  A    between atoms: _316  and  _317
REMARK  118  A    between atoms: _323  and  _324
REMARK  119  A    between atoms: _329  and  _331
REMARK  120  A    between atoms: _331  and  _332
REMARK  121  A    between atoms: _331  and  _334
REMARK  122  A    between atoms: _334  and  _335
REMARK  123  A    between atoms: _338  and  _340
REMARK  124  A    between atoms: _340  and  _341
REMARK  125  A    between atoms: _340  and  _343
REMARK  126  A    between atoms: _343  and  _344
REMARK  127  A    between atoms: _347  and  _349
REMARK  128  A    between atoms: _349  and  _350
REMARK  129  A    between atoms: _349  and  _352
REMARK  130  A    between atoms: _354  and  _356
REMARK  131  A    between atoms: _356  and  _357
REMARK  132  A    between atoms: _356  and  _359
REMARK  133  A    between atoms: _362  and  _364
REMARK  134  A    between atoms: _364  and  _365
REMARK  135  A    between atoms: _364  and  _367
REMARK  136  A    between atoms: _367  and  _368
REMARK  137  A    between atoms: _378  and  _380
REMARK  138  A    between atoms: _380  and  _381
REMARK  139  A    between atoms: _380  and  _383
REMARK  140  A    between atoms: _383  and  _384
REMARK  141  A    between atoms: _389  and  _391
REMARK  142  A    between atoms: _391  and  _392
REMARK  143  A    between atoms: _391  and  _394
REMARK  144  A    between atoms: _394  and  _395
REMARK  145  A    between atoms: _395  and  _396
REMARK  146  A    between atoms: _396  and  _397
REMARK                            x       y       z     vdW  Elec       q    Type
REMARK                         _______ _______ _______ _____ _____    ______ ____
ROOT
ATOM      1  CB  GLN A   1      -8.769   1.998   7.401  0.00  0.00    +0.035 C 
ENDROOT
BRANCH   1   2
ATOM      2  CA  GLN A   1      -9.586   0.909   6.693  0.00  0.00    +0.134 C 
BRANCH   2   3
ATOM      3  N   GLN A   1      -8.732   0.101   5.844  0.00  0.00    -0.239 NA
ATOM      4  H   GLN A   1      -8.390   0.457   4.929  0.00  0.00    +0.142 HD
ENDBRANCH   2   3
BRANCH   2   5
ATOM      5  C   GLN A   1     -10.676   1.534   5.832  0.00  0.00    +0.224 C 
ATOM      6  O   GLN A   1     -10.400   1.875   4.678  0.00  0.00    -0.287 OA
ENDBRANCH   2   5
ENDBRANCH   1   2
BRANCH   1   7
ATOM      7  CG  GLN A   1      -8.078   2.913   6.393  0.00  0.00    +0.087 C 
BRANCH   7   8
ATOM      8  CD  GLN A   1      -7.063   3.828   7.049  0.00  0.00    +0.219 C 
ATOM      9  OE1 GLN A   1      -6.281   3.364   7.861  0.00  0.00    -0.275 OA
ATOM     10  NE2 GLN A   1      -7.069   5.110   6.716  0.00  0.00    -0.329 N 
ATOM     11 HE21 GLN A   1      -6.388   5.764   7.153  0.00  0.00    +0.145 HD
ATOM     12 HE22 GLN A   1      -7.755   5.463   6.018  0.00  0.00    +0.145 HD
ENDBRANCH   7   8
ENDBRANCH   1   7
TORSDOF 5
REMARK  Name = ../refined-set-2016/3dc3/3dc3_pocket.pdb
REMARK  146 active torsions:
REMARK  status: ('A' for Active; 'I' for Inactive)
REMARK    1  A    between atoms: _1  and  _3
REMARK    2  A    between atoms: _3  and  _4
REMARK    3  A    between atoms: _3  and  _6
REMARK    4  A    between atoms: _6  and  _7
REMARK    5  A    between atoms: _17  and  _19
REMARK    6  A    between atoms: _19  and  _20
REMARK    7  A    between atoms: _19  and  _22
REMARK    8  A    between atoms: _22  and  _23
REMARK    9  A    between atoms: _28  and  _29
REMARK   10  A    between atoms: _31  and  _33
REMARK   11  A    between atoms: _33  and  _34
REMARK   12  A    between atoms: _33  and  _36
REMARK   13  A    between atoms: _36  and  _37
REMARK   14  A    between atoms: _40  and  _41
REMARK   15  A    between atoms: _46  and  _48
REMARK   16  A    between atoms: _48  and  _49
REMARK   17  A    between atoms: _48  and  _51
REMARK   18  A    between atoms: _51  and  _52
REMARK   19  A    between atoms: _57  and  _59
REMARK   20  A    between atoms: _59  and  _60
REMARK   21  A    between atoms: _59  and  _62
REMARK   22  A    between atoms: _62  and  _63
REMARK   23  A    between atoms: _65  and  _67
REMARK   24  A    between atoms: _67  and  _68
REMARK   25  A    between atoms: _67  and  _70
REMARK   26  A    between atoms: _70  and  _71
REMARK   27  A    between atoms: _71  and  _72
REMARK   28  A    between atoms: _77  and  _79
REMARK   29  A    between atoms: _79  and  _80
REMARK   30  A    between atoms: _79  and  _82
REMARK   31  A    between atoms: _82  and  _83
REMARK   32  A    between atoms: _86  and  _88
REMARK   33  A    between atoms: _88  and  _89
REMARK   34  A    between atoms: _88  and  _91
REMARK   35  A    between atoms: _91  and  _92
REMARK   36  A    between atoms: _92  and  _93
REMARK   37  A    between atoms: _98  and  _100
REMARK   38  A    between atoms: _100  and  _101
REMARK   39  A    between atoms: _100  and  _103
REMARK   40  A    between atoms: _103  and  _104
REMARK   41  A    between atoms: _110  and  _112
REMARK   42  A    between atoms: _123  and  _126
REMARK   43  A    between atoms: _126  and  _127
REMARK   44  A    between atoms: _135  and  _136
REMARK   45  A    between atoms: _144  and  _146
REMARK   46  A    between atoms: _146  and  _147
REMARK   47  A    between atoms: _146  and  _149
REMARK   48  A    between atoms: _149  and  _150
REMARK   49  A    between atoms: _150  and  _151
REMARK   50  A    between atoms: _154  and  _156
REMARK   51  A    between atoms: _156  and  _157
REMARK   52  A    between atoms: _156  and  _159
REMARK   53  A    between atoms: _159  and  _160
REMARK   54  A    between atoms: _165  and  _167
REMARK   55  A    between atoms: _167  and  _168
REMARK   56  A    between atoms: _167  and  _170
REMARK   57  A    between atoms: _170  and  _171
REMARK   58  A    between atoms: _171  and  _172
REMARK   59  A    between atoms: _175  and  _177
REMARK   60  A    between atoms: _177  and  _178
REMARK   61  A    between atoms: _177  and  _180
REMARK   62  A    between atoms: _180  and  _181
REMARK   63  A    between atoms: _184  and  _186
REMARK   64  A    between atoms: _186  and  _187
REMARK   65  A    between atoms: _186  and  _189
REMARK   66  A    between atoms: _189  and  _190
REMARK   67  A    between atoms: _191  and  ZN_406
REMARK   68  A    between atoms: _195  and  _197
REMARK   69  A    between atoms: _197  and  _198
REMARK   70  A    between atoms: _197  and  _200
REMARK   71  A    between atoms: _200  and  _201
REMARK   72  A    between atoms: _204  and  _206
REMARK   73  A    between atoms: _206  and  _207
REMARK   74  A    between atoms: _206  and  _209
REMARK   75  A    between atoms: _212  and  _214
REMARK   76  A    between atoms: _214  and  _215
REMARK   77  A    between atoms: _214  and  _217
REMARK   78  A    between atoms: _217  and  _218
REMARK   79  A    between atoms: _223  and  _225
REMARK   80  A    between atoms: _225  and  _226
REMARK   81  A    between atoms: _225  and  _228
REMARK   82  A    between atoms: _228  and  _229
REMARK   83  A    between atoms: _235  and  _237
REMARK   84  A    between atoms: _237  and  _238
REMARK   85  A    between atoms: _237  and  _240
REMARK   86  A    between atoms: _243  and  _245
REMARK   87  A    between atoms: _245  and  _246
REMARK   88  A    between atoms: _245  and  _248
REMARK   89  A    between atoms: _248  and  _249
REMARK   90  A    between atoms: _252  and  _254
REMARK   91  A    between atoms: _254  and  _255
REMARK   92  A    between atoms: _258  and  _260
REMARK   93  A    between atoms: _260  and  _261
REMARK   94  A    between atoms: _260  and  _263
REMARK   95  A    between atoms: _266  and  _268
REMARK   96  A    between atoms: _268  and  _269
REMARK   97  A    between atoms: _268  and  _271
REMARK   98  A    between atoms: _271  and  _272
REMARK   99  A    between atoms: _275  and  _277
REMARK  100  A    between atoms: _277  and  _278
REMARK  101  A    between atoms: _280  and  _282
REMARK  102  A    between atoms: _282  and  _283
REMARK  103  A    between atoms: _282  and  _285
REMARK  104  A    between atoms: _285  and  _286
REMARK  105  A    between atoms: _288  and  _290
REMARK  106  A    between atoms: _290  and  _291
REMARK  107  A    between atoms: _290  and  _293
REMARK  108  A    between atoms: _293  and  _294
REMARK  109  A    between atoms: _297  and  _299
REMARK  110  A    between atoms: _299  and  _300
REMARK  111  A    between atoms: _299  and  _302
REMARK  112  A    between atoms: _302  and  _303
REMARK  113  A    between atoms: _306  and  _308
REMARK  114  A    between atoms: _308  and  _309
REMARK  115  A    between atoms: _308  and  _311
REMARK  116  A    between atoms: _311  and  _312
REMARK  117  A    between atoms: _316  and  _317
REMARK  118  A    between atoms: _323  and  _324
REMARK  119  A    between atoms: _329  and  _331
REMARK  120  A    between atoms: _331  and  _332
REMARK  121  A    between atoms: _331  and  _334
REMARK  122  A    between atoms: _334  and  _335
REMARK  123  A    between atoms: _338  and  _340
REMARK  124  A    between atoms: _340  and  _341
REMARK  125  A    between atoms: _340  and  _343
REMARK  126  A    between atoms: _343  and  _344
REMARK  127  A    between atoms: _347  and  _349
REMARK  128  A    between atoms: _349  and  _350
REMARK  129  A    between atoms: _349  and  _352
REMARK  130  A    between atoms: _354  and  _356
REMARK  131  A    between atoms: _356  and  _357
REMARK  132  A    between atoms: _356  and  _359
REMARK  133  A    between atoms: _362  and  _364
REMARK  134  A    between atoms: _364  and  _365
REMARK  135  A    between atoms: _364  and  _367
REMARK  136  A    between atoms: _367  and  _368
REMARK  137  A    between atoms: _378  and  _380
REMARK  138  A    between atoms: _380  and  _381
REMARK  139  A    between atoms: _380  and  _383
REMARK  140  A    between atoms: _383  and  _384
REMARK  141  A    between atoms: _389  and  _391
REMARK  142  A    between atoms: _391  and  _392
REMARK  143  A    between atoms: _391  and  _394
REMARK  144  A    between atoms: _394  and  _395
REMARK  145  A    between atoms: _395  and  _396
REMARK  146  A    between atoms: _396  and  _397
REMARK                            x       y       z     vdW  Elec       q    Type
REMARK                         _______ _______ _______ _____ _____    ______ ____
ROOT
ATOM      1  C   UNK A   4     -10.299  -1.401  10.359  0.00  0.00    +0.000 C 
ATOM      2  C   UNK A   4     -10.376  -2.720  11.131  0.00  0.00    +0.000 C 
ATOM      3  O   UNK A   4     -11.047  -2.821  12.157  0.00  0.00    +0.000 OA
ATOM      4  N   VAL A   5      -9.644  -3.697  10.619  0.00  0.00    +0.000 N 
ATOM      5  CA  VAL A   5      -9.632  -5.026  11.218  0.00  0.00    +0.000 C 
ATOM      6  C   VAL A   5      -8.213  -5.514  11.485  0.00  0.00    +0.000 C 
ATOM      7  N   UNK A   6      -8.126  -6.483  12.384  0.00  0.00    +0.000 N 
ATOM      8  H   UNK A   6      -8.967  -6.693  12.959  0.00  0.00    +0.000 HD
ATOM      9  C   UNK A   6      -6.919  -7.276  12.618  0.00  0.00    +0.000 C 
ATOM     10  C   UNK A   6      -6.357  -7.046  14.014  0.00  0.00    +0.000 C 
ATOM     11  C   UNK A   6      -6.040  -5.607  14.286  0.00  0.00    +0.000 A 
ATOM     12  C   UNK A   6      -6.816  -4.559  14.689  0.00  0.00    +0.000 A 
ATOM     13  N   UNK A   6      -5.995  -3.447  14.769  0.00  0.00    +0.000 N 
ATOM     14 ZN   UNK A   6      -6.838  -1.687  15.420  0.00  0.00    +0.000 Zn
ATOM     15  N   UNK A   4      -7.551  -0.731  13.771  0.00  0.00    +0.000 N 
ATOM     16  C   UNK A   4      -8.035   0.497  13.603  0.00  0.00    +0.000 A 
ATOM     17  N   UNK A   4      -8.539   0.593  12.373  0.00  0.00    +0.000 NA
ATOM     18  C   UNK A   4      -8.372  -0.600  11.713  0.00  0.00    +0.000 A 
ATOM     19  C   UNK A   4      -7.762  -1.429  12.616  0.00  0.00    +0.000 A 
ATOM     20  C   UNK A   6      -4.768  -3.807  14.437  0.00  0.00    +0.000 A 
ATOM     21  N   UNK A   6      -4.766  -5.108  14.137  0.00  0.00    +0.000 NA
ATOM     22  O   VAL A   5      -7.259  -5.053  10.872  0.00  0.00    +0.000 OA
ATOM     23  H   VAL A   5      -9.067  -3.513   9.774  0.00  0.00    +0.000 HD
ATOM     24  C   UNK A   4      -8.876  -0.820  10.314  0.00  0.00    +0.000 C 
ENDROOT
BRANCH  14  25
ATOM     25  N   UNK A   6      -8.287  -2.409  16.706  0.00  0.00    +0.000 N 
ATOM     26  C   UNK A   6      -8.009  -3.339  17.599  0.00  0.00    +0.000 A 
ATOM     27  N   UNK A   6      -9.157  -3.728  18.159  0.00  0.00    +0.000 NA
ATOM     28  C   UNK A   6     -10.191  -3.019  17.608  0.00  0.00    +0.000 A 
ATOM     29  C   UNK A   6      -9.649  -2.177  16.687  0.00  0.00    +0.000 A 
BRANCH  29  30
ATOM     30  C   UNK A   6     -10.349  -1.189  15.807  0.00  0.00    +0.000 C 
BRANCH  30  31
ATOM     31  C   UNK A   6     -11.859  -1.491  15.668  0.00  0.00    +0.000 C 
BRANCH  31  32
ATOM     32  C   UNK A   6     -12.549  -0.303  15.002  0.00  0.00    +0.000 C 
ATOM     33  N   UNK A   4     -13.509   0.288  15.689  0.00  0.00    +0.000 N 
ATOM     34  H   UNK A   4     -13.807  -0.147  16.586  0.00  0.00    +0.000 HD
ATOM     35  O   UNK A   6     -12.155   0.005  13.859  0.00  0.00    +0.000 OA
BRANCH  33  36
ATOM     36  C   UNK A   4     -14.182   1.522  15.264  0.00  0.00    +0.000 C 
BRANCH  36  37
ATOM     37  C   UNK A   4     -13.535   2.666  16.049  0.00  0.00    +0.000 C 
ATOM     38  O   UNK A   4     -13.703   2.695  17.269  0.00  0.00    +0.000 OA
ATOM     39  N   VAL A   5     -12.790   3.503  15.328  0.00  0.00    +0.000 N 
ATOM     40  H   VAL A   5     -12.789   3.419  14.291  0.00  0.00    +0.000 HD
BRANCH  39  41
ATOM     41  CA  VAL A   5     -11.974   4.536  15.962  0.00  0.00    +0.000 C 
BRANCH  41  42
ATOM     42  C   VAL A   5     -12.693   5.884  16.027  0.00  0.00    +0.000 C 
ATOM     43  N   UNK A   6     -12.760   6.489  17.197  0.00  0.00    +0.000 N 
ATOM     44  H   UNK A   6     -12.295   6.047  18.015  0.00  0.00    +0.000 HD
ATOM     45  O   VAL A   5     -13.181   6.341  14.968  0.00  0.00    +0.000 OA
BRANCH  43  46
ATOM     46  C   UNK A   6     -13.463   7.756  17.388  0.00  0.00    +0.000 C 
BRANCH  46  47
ATOM     47  C   UNK A   6     -12.571   8.783  18.100  0.00  0.00    +0.000 C 
ATOM     48  O   UNK A   6     -11.748   8.373  18.922  0.00  0.00    +0.000 OA
ENDBRANCH  46  47
BRANCH  46  49
ATOM     49  C   UNK A   6     -14.731   7.579  18.219  0.00  0.00    +0.000 C 
BRANCH  49  50
ATOM     50  C   UNK A   6     -15.712   6.531  17.801  0.00  0.00    +0.000 A 
ATOM     51  N   UNK A   6     -15.446   5.190  17.947  0.00  0.00    +0.000 NA
ATOM     52  C   UNK A   6     -16.481   4.491  17.503  0.00  0.00    +0.000 A 
ATOM     53  N   UNK A   6     -17.416   5.339  17.082  0.00  0.00    +0.000 NA
ATOM     54  C   UNK A   6     -16.955   6.614  17.259  0.00  0.00    +0.000 A 
ENDBRANCH  49  50
ENDBRANCH  46  49
ENDBRANCH  43  46
ENDBRANCH  41  42
BRANCH  41  55
ATOM     55  CB  VAL A   5     -10.664   4.739  15.159  0.00  0.00    +0.000 C 
ATOM     56  CG2 VAL A   5      -9.844   5.824  15.837  0.00  0.00    +0.000 C 
ATOM     57  CG1 VAL A   5      -9.936   3.402  15.005  0.00  0.00    +0.000 C 
ENDBRANCH  41  55
ENDBRANCH  39  41
ENDBRANCH  36  37
BRANCH  36  58
ATOM     58  C   UNK A   4     -15.679   1.434  15.488  0.00  0.00    +0.000 C 
BRANCH  58  59
ATOM     59  C   UNK A   4     -16.358   0.391  14.581  0.00  0.00    +0.000 C 
ATOM     60  C   UNK A   4     -17.139  -0.629  15.381  0.00  0.00    +0.000 C 
ATOM     61  C   UNK A   4     -17.272   1.083  13.575  0.00  0.00    +0.000 C 
ENDBRANCH  58  59
ENDBRANCH  36  58
ENDBRANCH  33  36
ENDBRANCH  31  32
BRANCH  31  62
ATOM     62  N   UNK A   6     -12.059  -2.706  14.870  0.00  0.00    +0.000 N 
ATOM     63  C   LEU A   2     -12.693  -3.772  15.327  0.00  0.00    +0.000 C 
ATOM     64  O   LEU A   2     -13.140  -3.876  16.473  0.00  0.00    +0.000 OA
ATOM     65  H   UNK A   6     -11.685  -2.730  13.900  0.00  0.00    +0.000 HD
BRANCH  63  66
ATOM     66  CA  LEU A   2     -12.898  -4.948  14.382  0.00  0.00    +0.000 C 
BRANCH  66  67
ATOM     67  N   LEU A   2     -12.485  -6.181  15.042  0.00  0.00    +0.000 N 
ATOM     68  H   LEU A   2     -13.170  -6.643  15.673  0.00  0.00    +0.000 HD
ATOM     69  C   GLU A   1     -11.311  -6.749  14.897  0.00  0.00    +0.000 C 
ATOM     70  O   GLU A   1     -10.457  -6.312  14.140  0.00  0.00    +0.000 OA
BRANCH  69  71
ATOM     71  CA  GLU A   1     -11.062  -8.012  15.731  0.00  0.00    +0.000 C 
BRANCH  71  72
ATOM     72  N   GLU A   1     -10.546  -9.058  14.851  0.00  0.00    +0.000 NA
ATOM     73  H   GLU A   1      -9.848  -8.822  14.116  0.00  0.00    +0.000 HD
ENDBRANCH  71  72
BRANCH  71  74
ATOM     74  CB  GLU A   1     -10.113  -7.715  16.891  0.00  0.00    +0.000 C 
BRANCH  74  75
ATOM     75  CG  GLU A   1     -10.713  -6.790  17.966  0.00  0.00    +0.000 C 
BRANCH  75  76
ATOM     76  CD  GLU A   1      -9.768  -6.757  19.168  0.00  0.00    +0.000 C 
ATOM     77  OE2 GLU A   1      -9.681  -5.691  19.791  0.00  0.00    +0.000 OA
ATOM     78  OE1 GLU A   1      -9.113  -7.770  19.498  0.00  0.00    +0.000 OA
ENDBRANCH  75  76
ENDBRANCH  74  75
ENDBRANCH  71  74
ENDBRANCH  69  71
ENDBRANCH  66  67
BRANCH  66  79
ATOM     79  CB  LEU A   2     -14.370  -5.073  13.988  0.00  0.00    +0.000 C 
BRANCH  79  80
ATOM     80  CG  LEU A   2     -15.185  -3.838  13.619  0.00  0.00    +0.000 C 
ATOM     81  CD2 LEU A   2     -16.600  -4.291  13.248  0.00  0.00    +0.000 C 
ATOM     82  CD1 LEU A   2     -14.542  -3.058  12.477  0.00  0.00    +0.000 C 
ENDBRANCH  79  80
ENDBRANCH  66  79
ENDBRANCH  63  66
ENDBRANCH  31  62
ENDBRANCH  30  31
ENDBRANCH  29  30
ENDBRANCH  14  25
BRANCH   1  84
ATOM     83  C   UNK A   3     -11.794   0.518  10.355  0.00  0.00    +0.000 C 
ATOM     84  N   UNK A   4     -11.234  -0.489  11.006  0.00  0.00    +0.000 N 
ATOM     85  H   UNK A   4     -11.468  -0.634  12.009  0.00  0.00    +0.000 HD
ATOM     86  O   UNK A   3     -11.579   0.767   9.170  0.00  0.00    +0.000 OA
BRANCH  83  87
ATOM     87  C   UNK A   3     -12.799   1.375  11.142  0.00  0.00    +0.000 C 
BRANCH  87  90
ATOM     88  C   LEU A   2     -12.748   3.772  11.199  0.00  0.00    +0.000 C 
ATOM     89  O   LEU A   2     -12.810   3.724  12.417  0.00  0.00    +0.000 OA
ATOM     90  N   UNK A   3     -12.878   2.668  10.453  0.00  0.00    +0.000 N 
ATOM     91  H   UNK A   3     -13.029   2.725   9.426  0.00  0.00    +0.000 HD
BRANCH  88  92
ATOM     92  CA  LEU A   2     -12.499   5.100  10.471  0.00  0.00    +0.000 C 
BRANCH  92  94
ATOM     93  C   GLU A   1     -12.950   7.465  10.804  0.00  0.00    +0.000 C 
ATOM     94  N   LEU A   2     -12.750   6.254  11.344  0.00  0.00    +0.000 N 
ATOM     95  H   LEU A   2     -12.773   6.132  12.377  0.00  0.00    +0.000 HD
ATOM     96  O   GLU A   1     -12.891   7.635   9.584  0.00  0.00    +0.000 OA
BRANCH  93  97
ATOM     97  CA  GLU A   1     -13.263   8.639  11.727  0.00  0.00    +0.000 C 
BRANCH  97  98
ATOM     98  CB  GLU A   1     -11.966   9.292  12.238  0.00  0.00    +0.000 C 
ATOM     99  CG2 GLU A   1     -11.232   8.427  13.249  0.00  0.00    +0.000 C 
BRANCH  98 100
ATOM    100  CG1 GLU A   1     -11.036   9.685  11.073  0.00  0.00    +0.000 C 
ATOM    101  CD1 GLU A   1      -9.773  10.349  11.572  0.00  0.00    +0.000 C 
ENDBRANCH  98 100
ENDBRANCH  97  98
BRANCH  97 102
ATOM    102  N   GLU A   1     -14.113   8.222  12.832  0.00  0.00    +0.000 NA
ATOM    103  H   GLU A   1     -13.747   7.557  13.543  0.00  0.00    +0.000 HD
ENDBRANCH  97 102
ENDBRANCH  93  97
ENDBRANCH  92  94
BRANCH  92 104
ATOM    104  CB  LEU A   2     -11.065   5.062   9.947  0.00  0.00    +0.000 C 
BRANCH 104 105
ATOM    105  CG  LEU A   2     -10.032   5.068  11.099  0.00  0.00    +0.000 C 
BRANCH 105 106
ATOM    106  CD  LEU A   2      -8.926   4.093  10.714  0.00  0.00    +0.000 C 
ATOM    107  NE2 LEU A   2      -9.189   2.867  11.096  0.00  0.00    +0.000 N 
ATOM    108 HE21 LEU A   2     -10.051   2.666  11.643  0.00  0.00    +0.000 HD
ATOM    109 HE22 LEU A   2      -8.536   2.095  10.852  0.00  0.00    +0.000 HD
ATOM    110  OE1 LEU A   2      -7.949   4.452  10.070  0.00  0.00    +0.000 OA
ENDBRANCH 105 106
ENDBRANCH 104 105
ENDBRANCH  92 104
ENDBRANCH  88  92
ENDBRANCH  87  90
BRANCH  87 111
ATOM    111  C   UNK A   3     -14.140   0.676  11.290  0.00  0.00    +0.000 C 
BRANCH 111 112
ATOM    112  C   UNK A   3     -14.899   0.183  10.070  0.00  0.00    +0.000 A 
ATOM    113  C   UNK A   3     -16.010   0.888   9.621  0.00  0.00    +0.000 A 
ATOM    114  C   UNK A   3     -16.732   0.457   8.515  0.00  0.00    +0.000 A 
ATOM    115  C   UNK A   3     -16.358  -0.677   7.826  0.00  0.00    +0.000 A 
ATOM    116  C   UNK A   3     -15.249  -1.394   8.247  0.00  0.00    +0.000 A 
ATOM    117  C   UNK A   3     -14.557  -0.953   9.357  0.00  0.00    +0.000 A 
ENDBRANCH 111 112
ENDBRANCH  87 111
ENDBRANCH  83  87
ENDBRANCH   1  84
BRANCH   9 118
ATOM    118  C   UNK A   6      -7.346  -8.732  12.457  0.00  0.00    +0.000 C 
ATOM    119  O   UNK A   6      -8.441  -9.055  12.950  0.00  0.00    +0.000 OA
ENDBRANCH   9 118
BRANCH   5 120
ATOM    120  CB  VAL A   5     -10.324  -6.056  10.315  0.00  0.00    +0.000 C 
BRANCH 120 121
ATOM    121  CG  VAL A   5     -11.793  -5.833  10.035  0.00  0.00    +0.000 A 
ATOM    122  CD2 VAL A   5     -12.754  -6.540  10.763  0.00  0.00    +0.000 A 
ATOM    123  CE2 VAL A   5     -14.093  -6.360  10.473  0.00  0.00    +0.000 A 
ATOM    124  CZ  VAL A   5     -14.485  -5.480   9.470  0.00  0.00    +0.000 A 
ATOM    125  CE1 VAL A   5     -13.540  -4.768   8.765  0.00  0.00    +0.000 A 
ATOM    126  CD1 VAL A   5     -12.185  -4.941   9.044  0.00  0.00    +0.000 A 
ENDBRANCH 120 121
ENDBRANCH   5 120
TORSDOF 42
REMARK  Name = ../refined-set-2016/3dc3/3dc3_pocket.pdb
REMARK  146 active torsions:
REMARK  status: ('A' for Active; 'I' for Inactive)
REMARK    1  A    between atoms: _1  and  _3
REMARK    2  A    between atoms: _3  and  _4
REMARK    3  A    between atoms: _3  and  _6
REMARK    4  A    between atoms: _6  and  _7
REMARK    5  A    between atoms: _17  and  _19
REMARK    6  A    between atoms: _19  and  _20
REMARK    7  A    between atoms: _19  and  _22
REMARK    8  A    between atoms: _22  and  _23
REMARK    9  A    between atoms: _28  and  _29
REMARK   10  A    between atoms: _31  and  _33
REMARK   11  A    between atoms: _33  and  _34
REMARK   12  A    between atoms: _33  and  _36
REMARK   13  A    between atoms: _36  and  _37
REMARK   14  A    between atoms: _40  and  _41
REMARK   15  A    between atoms: _46  and  _48
REMARK   16  A    between atoms: _48  and  _49
REMARK   17  A    between atoms: _48  and  _51
REMARK   18  A    between atoms: _51  and  _52
REMARK   19  A    between atoms: _57  and  _59
REMARK   20  A    between atoms: _59  and  _60
REMARK   21  A    between atoms: _59  and  _62
REMARK   22  A    between atoms: _62  and  _63
REMARK   23  A    between atoms: _65  and  _67
REMARK   24  A    between atoms: _67  and  _68
REMARK   25  A    between atoms: _67  and  _70
REMARK   26  A    between atoms: _70  and  _71
REMARK   27  A    between atoms: _71  and  _72
REMARK   28  A    between atoms: _77  and  _79
REMARK   29  A    between atoms: _79  and  _80
REMARK   30  A    between atoms: _79  and  _82
REMARK   31  A    between atoms: _82  and  _83
REMARK   32  A    between atoms: _86  and  _88
REMARK   33  A    between atoms: _88  and  _89
REMARK   34  A    between atoms: _88  and  _91
REMARK   35  A    between atoms: _91  and  _92
REMARK   36  A    between atoms: _92  and  _93
REMARK   37  A    between atoms: _98  and  _100
REMARK   38  A    between atoms: _100  and  _101
REMARK   39  A    between atoms: _100  and  _103
REMARK   40  A    between atoms: _103  and  _104
REMARK   41  A    between atoms: _110  and  _112
REMARK   42  A    between atoms: _123  and  _126
REMARK   43  A    between atoms: _126  and  _127
REMARK   44  A    between atoms: _135  and  _136
REMARK   45  A    between atoms: _144  and  _146
REMARK   46  A    between atoms: _146  and  _147
REMARK   47  A    between atoms: _146  and  _149
REMARK   48  A    between atoms: _149  and  _150
REMARK   49  A    between atoms: _150  and  _151
REMARK   50  A    between atoms: _154  and  _156
REMARK   51  A    between atoms: _156  and  _157
REMARK   52  A    between atoms: _156  and  _159
REMARK   53  A    between atoms: _159  and  _160
REMARK   54  A    between atoms: _165  and  _167
REMARK   55  A    between atoms: _167  and  _168
REMARK   56  A    between atoms: _167  and  _170
REMARK   57  A    between atoms: _170  and  _171
REMARK   58  A    between atoms: _171  and  _172
REMARK   59  A    between atoms: _175  and  _177
REMARK   60  A    between atoms: _177  and  _178
REMARK   61  A    between atoms: _177  and  _180
REMARK   62  A    between atoms: _180  and  _181
REMARK   63  A    between atoms: _184  and  _186
REMARK   64  A    between atoms: _186  and  _187
REMARK   65  A    between atoms: _186  and  _189
REMARK   66  A    between atoms: _189  and  _190
REMARK   67  A    between atoms: _191  and  ZN_406
REMARK   68  A    between atoms: _195  and  _197
REMARK   69  A    between atoms: _197  and  _198
REMARK   70  A    between atoms: _197  and  _200
REMARK   71  A    between atoms: _200  and  _201
REMARK   72  A    between atoms: _204  and  _206
REMARK   73  A    between atoms: _206  and  _207
REMARK   74  A    between atoms: _206  and  _209
REMARK   75  A    between atoms: _212  and  _214
REMARK   76  A    between atoms: _214  and  _215
REMARK   77  A    between atoms: _214  and  _217
REMARK   78  A    between atoms: _217  and  _218
REMARK   79  A    between atoms: _223  and  _225
REMARK   80  A    between atoms: _225  and  _226
REMARK   81  A    between atoms: _225  and  _228
REMARK   82  A    between atoms: _228  and  _229
REMARK   83  A    between atoms: _235  and  _237
REMARK   84  A    between atoms: _237  and  _238
REMARK   85  A    between atoms: _237  and  _240
REMARK   86  A    between atoms: _243  and  _245
REMARK   87  A    between atoms: _245  and  _246
REMARK   88  A    between atoms: _245  and  _248
REMARK   89  A    between atoms: _248  and  _249
REMARK   90  A    between atoms: _252  and  _254
REMARK   91  A    between atoms: _254  and  _255
REMARK   92  A    between atoms: _258  and  _260
REMARK   93  A    between atoms: _260  and  _261
REMARK   94  A    between atoms: _260  and  _263
REMARK   95  A    between atoms: _266  and  _268
REMARK   96  A    between atoms: _268  and  _269
REMARK   97  A    between atoms: _268  and  _271
REMARK   98  A    between atoms: _271  and  _272
REMARK   99  A    between atoms: _275  and  _277
REMARK  100  A    between atoms: _277  and  _278
REMARK  101  A    between atoms: _280  and  _282
REMARK  102  A    between atoms: _282  and  _283
REMARK  103  A    between atoms: _282  and  _285
REMARK  104  A    between atoms: _285  and  _286
REMARK  105  A    between atoms: _288  and  _290
REMARK  106  A    between atoms: _290  and  _291
REMARK  107  A    between atoms: _290  and  _293
REMARK  108  A    between atoms: _293  and  _294
REMARK  109  A    between atoms: _297  and  _299
REMARK  110  A    between atoms: _299  and  _300
REMARK  111  A    between atoms: _299  and  _302
REMARK  112  A    between atoms: _302  and  _303
REMARK  113  A    between atoms: _306  and  _308
REMARK  114  A    between atoms: _308  and  _309
REMARK  115  A    between atoms: _308  and  _311
REMARK  116  A    between atoms: _311  and  _312
REMARK  117  A    between atoms: _316  and  _317
REMARK  118  A    between atoms: _323  and  _324
REMARK  119  A    between atoms: _329  and  _331
REMARK  120  A    between atoms: _331  and  _332
REMARK  121  A    between atoms: _331  and  _334
REMARK  122  A    between atoms: _334  and  _335
REMARK  123  A    between atoms: _338  and  _340
REMARK  124  A    between atoms: _340  and  _341
REMARK  125  A    between atoms: _340  and  _343
REMARK  126  A    between atoms: _343  and  _344
REMARK  127  A    between atoms: _347  and  _349
REMARK  128  A    between atoms: _349  and  _350
REMARK  129  A    between atoms: _349  and  _352
REMARK  130  A    between atoms: _354  and  _356
REMARK  131  A    between atoms: _356  and  _357
REMARK  132  A    between atoms: _356  and  _359
REMARK  133  A    between atoms: _362  and  _364
REMARK  134  A    between atoms: _364  and  _365
REMARK  135  A    between atoms: _364  and  _367
REMARK  136  A    between atoms: _367  and  _368
REMARK  137  A    between atoms: _378  and  _380
REMARK  138  A    between atoms: _380  and  _381
REMARK  139  A    between atoms: _380  and  _383
REMARK  140  A    between atoms: _383  and  _384
REMARK  141  A    between atoms: _389  and  _391
REMARK  142  A    between atoms: _391  and  _392
REMARK  143  A    between atoms: _391  and  _394
REMARK  144  A    between atoms: _394  and  _395
REMARK  145  A    between atoms: _395  and  _396
REMARK  146  A    between atoms: _396  and  _397
REMARK                            x       y       z     vdW  Elec       q    Type
REMARK                         _______ _______ _______ _____ _____    ______ ____
ROOT
ATOM      1  C   GLU A   1      -6.019  -8.589  21.073  0.00  0.00    +0.238 C 
ATOM      2  O   GLU A   1      -5.179  -9.125  21.812  0.00  0.00    -0.274 OA
ATOM      3  N   HIS A   2      -7.228  -8.182  21.473  0.00  0.00    -0.298 N 
ATOM      4  H   HIS A   2      -7.849  -7.649  20.831  0.00  0.00    +0.150 HD
ENDROOT
BRANCH   1   5
ATOM      5  CA  GLU A   1      -5.734  -8.374  19.590  0.00  0.00    +0.145 C 
BRANCH   5   6
ATOM      6  N   GLU A   1      -6.791  -8.998  18.797  0.00  0.00    -0.238 NA
ATOM      7  H   GLU A   1      -7.648  -8.458  18.563  0.00  0.00    +0.142 HD
ENDBRANCH   5   6
BRANCH   5   8
ATOM      8  CB  GLU A   1      -5.663  -6.880  19.265  0.00  0.00    +0.038 C 
BRANCH   8   9
ATOM      9  CG  GLU A   1      -5.330  -6.648  17.799  0.00  0.00    +0.116 C 
BRANCH   9  10
ATOM     10  CD  GLU A   1      -4.538  -5.380  17.566  0.00  0.00    +0.365 C 
ATOM     11  OE2 GLU A   1      -5.044  -4.267  17.766  0.00  0.00    -0.246 OA
ATOM     12  OE1 GLU A   1      -3.364  -5.500  17.184  0.00  0.00    -0.246 OA
ENDBRANCH   9  10
ENDBRANCH   8   9
ENDBRANCH   5   8
ENDBRANCH   1   5
BRANCH   3  13
ATOM     13  CA  HIS A   2      -7.656  -8.503  22.832  0.00  0.00    +0.143 C 
BRANCH  13  14
ATOM     14  C   HIS A   2      -7.945  -9.999  22.905  0.00  0.00    +0.227 C 
ATOM     15  O   HIS A   2      -8.259 -10.615  21.887  0.00  0.00    -0.286 OA
ENDBRANCH  13  14
BRANCH  13  16
ATOM     16  CB  HIS A   2      -8.901  -7.715  23.263  0.00  0.00    +0.075 C 
BRANCH  16  17
ATOM     17  CG  HIS A   2      -8.550  -6.278  23.487  0.00  0.00    +0.082 A 
ATOM     18  CD2 HIS A   2      -8.112  -5.599  24.569  0.00  0.00    +0.115 A 
ATOM     19  NE2 HIS A   2      -7.936  -4.292  24.160  0.00  0.00    -0.221 NA
ATOM     20  CE1 HIS A   2      -8.233  -4.188  22.875  0.00  0.00    +0.199 A 
ATOM     21  ND1 HIS A   2      -8.613  -5.381  22.428  0.00  0.00    -0.227 NA
ENDBRANCH  16  17
ENDBRANCH  13  16
ENDBRANCH   3  13
TORSDOF 9
REMARK  Name = ../refined-set-2016/3dc3/3dc3_pocket.pdb
REMARK  146 active torsions:
REMARK  status: ('A' for Active; 'I' for Inactive)
REMARK    1  A    between atoms: _1  and  _3
REMARK    2  A    between atoms: _3  and  _4
REMARK    3  A    between atoms: _3  and  _6
REMARK    4  A    between atoms: _6  and  _7
REMARK    5  A    between atoms: _17  and  _19
REMARK    6  A    between atoms: _19  and  _20
REMARK    7  A    between atoms: _19  and  _22
REMARK    8  A    between atoms: _22  and  _23
REMARK    9  A    between atoms: _28  and  _29
REMARK   10  A    between atoms: _31  and  _33
REMARK   11  A    between atoms: _33  and  _34
REMARK   12  A    between atoms: _33  and  _36
REMARK   13  A    between atoms: _36  and  _37
REMARK   14  A    between atoms: _40  and  _41
REMARK   15  A    between atoms: _46  and  _48
REMARK   16  A    between atoms: _48  and  _49
REMARK   17  A    between atoms: _48  and  _51
REMARK   18  A    between atoms: _51  and  _52
REMARK   19  A    between atoms: _57  and  _59
REMARK   20  A    between atoms: _59  and  _60
REMARK   21  A    between atoms: _59  and  _62
REMARK   22  A    between atoms: _62  and  _63
REMARK   23  A    between atoms: _65  and  _67
REMARK   24  A    between atoms: _67  and  _68
REMARK   25  A    between atoms: _67  and  _70
REMARK   26  A    between atoms: _70  and  _71
REMARK   27  A    between atoms: _71  and  _72
REMARK   28  A    between atoms: _77  and  _79
REMARK   29  A    between atoms: _79  and  _80
REMARK   30  A    between atoms: _79  and  _82
REMARK   31  A    between atoms: _82  and  _83
REMARK   32  A    between atoms: _86  and  _88
REMARK   33  A    between atoms: _88  and  _89
REMARK   34  A    between atoms: _88  and  _91
REMARK   35  A    between atoms: _91  and  _92
REMARK   36  A    between atoms: _92  and  _93
REMARK   37  A    between atoms: _98  and  _100
REMARK   38  A    between atoms: _100  and  _101
REMARK   39  A    between atoms: _100  and  _103
REMARK   40  A    between atoms: _103  and  _104
REMARK   41  A    between atoms: _110  and  _112
REMARK   42  A    between atoms: _123  and  _126
REMARK   43  A    between atoms: _126  and  _127
REMARK   44  A    between atoms: _135  and  _136
REMARK   45  A    between atoms: _144  and  _146
REMARK   46  A    between atoms: _146  and  _147
REMARK   47  A    between atoms: _146  and  _149
REMARK   48  A    between atoms: _149  and  _150
REMARK   49  A    between atoms: _150  and  _151
REMARK   50  A    between atoms: _154  and  _156
REMARK   51  A    between atoms: _156  and  _157
REMARK   52  A    between atoms: _156  and  _159
REMARK   53  A    between atoms: _159  and  _160
REMARK   54  A    between atoms: _165  and  _167
REMARK   55  A    between atoms: _167  and  _168
REMARK   56  A    between atoms: _167  and  _170
REMARK   57  A    between atoms: _170  and  _171
REMARK   58  A    between atoms: _171  and  _172
REMARK   59  A    between atoms: _175  and  _177
REMARK   60  A    between atoms: _177  and  _178
REMARK   61  A    between atoms: _177  and  _180
REMARK   62  A    between atoms: _180  and  _181
REMARK   63  A    between atoms: _184  and  _186
REMARK   64  A    between atoms: _186  and  _187
REMARK   65  A    between atoms: _186  and  _189
REMARK   66  A    between atoms: _189  and  _190
REMARK   67  A    between atoms: _191  and  ZN_406
REMARK   68  A    between atoms: _195  and  _197
REMARK   69  A    between atoms: _197  and  _198
REMARK   70  A    between atoms: _197  and  _200
REMARK   71  A    between atoms: _200  and  _201
REMARK   72  A    between atoms: _204  and  _206
REMARK   73  A    between atoms: _206  and  _207
REMARK   74  A    between atoms: _206  and  _209
REMARK   75  A    between atoms: _212  and  _214
REMARK   76  A    between atoms: _214  and  _215
REMARK   77  A    between atoms: _214  and  _217
REMARK   78  A    between atoms: _217  and  _218
REMARK   79  A    between atoms: _223  and  _225
REMARK   80  A    between atoms: _225  and  _226
REMARK   81  A    between atoms: _225  and  _228
REMARK   82  A    between atoms: _228  and  _229
REMARK   83  A    between atoms: _235  and  _237
REMARK   84  A    between atoms: _237  and  _238
REMARK   85  A    between atoms: _237  and  _240
REMARK   86  A    between atoms: _243  and  _245
REMARK   87  A    between atoms: _245  and  _246
REMARK   88  A    between atoms: _245  and  _248
REMARK   89  A    between atoms: _248  and  _249
REMARK   90  A    between atoms: _252  and  _254
REMARK   91  A    between atoms: _254  and  _255
REMARK   92  A    between atoms: _258  and  _260
REMARK   93  A    between atoms: _260  and  _261
REMARK   94  A    between atoms: _260  and  _263
REMARK   95  A    between atoms: _266  and  _268
REMARK   96  A    between atoms: _268  and  _269
REMARK   97  A    between atoms: _268  and  _271
REMARK   98  A    between atoms: _271  and  _272
REMARK   99  A    between atoms: _275  and  _277
REMARK  100  A    between atoms: _277  and  _278
REMARK  101  A    between atoms: _280  and  _282
REMARK  102  A    between atoms: _282  and  _283
REMARK  103  A    between atoms: _282  and  _285
REMARK  104  A    between atoms: _285  and  _286
REMARK  105  A    between atoms: _288  and  _290
REMARK  106  A    between atoms: _290  and  _291
REMARK  107  A    between atoms: _290  and  _293
REMARK  108  A    between atoms: _293  and  _294
REMARK  109  A    between atoms: _297  and  _299
REMARK  110  A    between atoms: _299  and  _300
REMARK  111  A    between atoms: _299  and  _302
REMARK  112  A    between atoms: _302  and  _303
REMARK  113  A    between atoms: _306  and  _308
REMARK  114  A    between atoms: _308  and  _309
REMARK  115  A    between atoms: _308  and  _311
REMARK  116  A    between atoms: _311  and  _312
REMARK  117  A    between atoms: _316  and  _317
REMARK  118  A    between atoms: _323  and  _324
REMARK  119  A    between atoms: _329  and  _331
REMARK  120  A    between atoms: _331  and  _332
REMARK  121  A    between atoms: _331  and  _334
REMARK  122  A    between atoms: _334  and  _335
REMARK  123  A    between atoms: _338  and  _340
REMARK  124  A    between atoms: _340  and  _341
REMARK  125  A    between atoms: _340  and  _343
REMARK  126  A    between atoms: _343  and  _344
REMARK  127  A    between atoms: _347  and  _349
REMARK  128  A    between atoms: _349  and  _350
REMARK  129  A    between atoms: _349  and  _352
REMARK  130  A    between atoms: _354  and  _356
REMARK  131  A    between atoms: _356  and  _357
REMARK  132  A    between atoms: _356  and  _359
REMARK  133  A    between atoms: _362  and  _364
REMARK  134  A    between atoms: _364  and  _365
REMARK  135  A    between atoms: _364  and  _367
REMARK  136  A    between atoms: _367  and  _368
REMARK  137  A    between atoms: _378  and  _380
REMARK  138  A    between atoms: _380  and  _381
REMARK  139  A    between atoms: _380  and  _383
REMARK  140  A    between atoms: _383  and  _384
REMARK  141  A    between atoms: _389  and  _391
REMARK  142  A    between atoms: _391  and  _392
REMARK  143  A    between atoms: _391  and  _394
REMARK  144  A    between atoms: _394  and  _395
REMARK  145  A    between atoms: _395  and  _396
REMARK  146  A    between atoms: _396  and  _397
REMARK                            x       y       z     vdW  Elec       q    Type
REMARK                         _______ _______ _______ _____ _____    ______ ____
ROOT
ATOM      1  CB  PHE A   1      -7.772  12.905  14.103  0.00  0.00    +0.051 C 
ENDROOT
BRANCH   1   2
ATOM      2  CG  PHE A   1      -7.236  11.520  14.464  0.00  0.00    -0.020 A 
ATOM      3  CD2 PHE A   1      -8.074  10.588  15.062  0.00  0.00    -0.004 A 
ATOM      4  CE2 PHE A   1      -7.611   9.322  15.384  0.00  0.00    -0.000 A 
ATOM      5  CZ  PHE A   1      -6.294   8.982  15.130  0.00  0.00    -0.000 A 
ATOM      6  CE1 PHE A   1      -5.450   9.904  14.536  0.00  0.00    -0.000 A 
ATOM      7  CD1 PHE A   1      -5.921  11.156  14.185  0.00  0.00    -0.004 A 
ENDBRANCH   1   2
BRANCH   1   8
ATOM      8  CA  PHE A   1      -7.658  13.918  15.257  0.00  0.00    +0.137 C 
BRANCH   8   9
ATOM      9  N   PHE A   1      -8.161  15.226  14.842  0.00  0.00    -0.239 NA
ATOM     10  H   PHE A   1      -8.434  15.371  13.849  0.00  0.00    +0.142 HD
ENDBRANCH   8   9
BRANCH   8  11
ATOM     11  C   PHE A   1      -6.225  14.022  15.763  0.00  0.00    +0.224 C 
ATOM     12  O   PHE A   1      -5.863  13.392  16.767  0.00  0.00    -0.287 OA
ENDBRANCH   8  11
ENDBRANCH   1   8
TORSDOF 4
REMARK  Name = ../refined-set-2016/3dc3/3dc3_pocket.pdb
REMARK  146 active torsions:
REMARK  status: ('A' for Active; 'I' for Inactive)
REMARK    1  A    between atoms: _1  and  _3
REMARK    2  A    between atoms: _3  and  _4
REMARK    3  A    between atoms: _3  and  _6
REMARK    4  A    between atoms: _6  and  _7
REMARK    5  A    between atoms: _17  and  _19
REMARK    6  A    between atoms: _19  and  _20
REMARK    7  A    between atoms: _19  and  _22
REMARK    8  A    between atoms: _22  and  _23
REMARK    9  A    between atoms: _28  and  _29
REMARK   10  A    between atoms: _31  and  _33
REMARK   11  A    between atoms: _33  and  _34
REMARK   12  A    between atoms: _33  and  _36
REMARK   13  A    between atoms: _36  and  _37
REMARK   14  A    between atoms: _40  and  _41
REMARK   15  A    between atoms: _46  and  _48
REMARK   16  A    between atoms: _48  and  _49
REMARK   17  A    between atoms: _48  and  _51
REMARK   18  A    between atoms: _51  and  _52
REMARK   19  A    between atoms: _57  and  _59
REMARK   20  A    between atoms: _59  and  _60
REMARK   21  A    between atoms: _59  and  _62
REMARK   22  A    between atoms: _62  and  _63
REMARK   23  A    between atoms: _65  and  _67
REMARK   24  A    between atoms: _67  and  _68
REMARK   25  A    between atoms: _67  and  _70
REMARK   26  A    between atoms: _70  and  _71
REMARK   27  A    between atoms: _71  and  _72
REMARK   28  A    between atoms: _77  and  _79
REMARK   29  A    between atoms: _79  and  _80
REMARK   30  A    between atoms: _79  and  _82
REMARK   31  A    between atoms: _82  and  _83
REMARK   32  A    between atoms: _86  and  _88
REMARK   33  A    between atoms: _88  and  _89
REMARK   34  A    between atoms: _88  and  _91
REMARK   35  A    between atoms: _91  and  _92
REMARK   36  A    between atoms: _92  and  _93
REMARK   37  A    between atoms: _98  and  _100
REMARK   38  A    between atoms: _100  and  _101
REMARK   39  A    between atoms: _100  and  _103
REMARK   40  A    between atoms: _103  and  _104
REMARK   41  A    between atoms: _110  and  _112
REMARK   42  A    between atoms: _123  and  _126
REMARK   43  A    between atoms: _126  and  _127
REMARK   44  A    between atoms: _135  and  _136
REMARK   45  A    between atoms: _144  and  _146
REMARK   46  A    between atoms: _146  and  _147
REMARK   47  A    between atoms: _146  and  _149
REMARK   48  A    between atoms: _149  and  _150
REMARK   49  A    between atoms: _150  and  _151
REMARK   50  A    between atoms: _154  and  _156
REMARK   51  A    between atoms: _156  and  _157
REMARK   52  A    between atoms: _156  and  _159
REMARK   53  A    between atoms: _159  and  _160
REMARK   54  A    between atoms: _165  and  _167
REMARK   55  A    between atoms: _167  and  _168
REMARK   56  A    between atoms: _167  and  _170
REMARK   57  A    between atoms: _170  and  _171
REMARK   58  A    between atoms: _171  and  _172
REMARK   59  A    between atoms: _175  and  _177
REMARK   60  A    between atoms: _177  and  _178
REMARK   61  A    between atoms: _177  and  _180
REMARK   62  A    between atoms: _180  and  _181
REMARK   63  A    between atoms: _184  and  _186
REMARK   64  A    between atoms: _186  and  _187
REMARK   65  A    between atoms: _186  and  _189
REMARK   66  A    between atoms: _189  and  _190
REMARK   67  A    between atoms: _191  and  ZN_406
REMARK   68  A    between atoms: _195  and  _197
REMARK   69  A    between atoms: _197  and  _198
REMARK   70  A    between atoms: _197  and  _200
REMARK   71  A    between atoms: _200  and  _201
REMARK   72  A    between atoms: _204  and  _206
REMARK   73  A    between atoms: _206  and  _207
REMARK   74  A    between atoms: _206  and  _209
REMARK   75  A    between atoms: _212  and  _214
REMARK   76  A    between atoms: _214  and  _215
REMARK   77  A    between atoms: _214  and  _217
REMARK   78  A    between atoms: _217  and  _218
REMARK   79  A    between atoms: _223  and  _225
REMARK   80  A    between atoms: _225  and  _226
REMARK   81  A    between atoms: _225  and  _228
REMARK   82  A    between atoms: _228  and  _229
REMARK   83  A    between atoms: _235  and  _237
REMARK   84  A    between atoms: _237  and  _238
REMARK   85  A    between atoms: _237  and  _240
REMARK   86  A    between atoms: _243  and  _245
REMARK   87  A    between atoms: _245  and  _246
REMARK   88  A    between atoms: _245  and  _248
REMARK   89  A    between atoms: _248  and  _249
REMARK   90  A    between atoms: _252  and  _254
REMARK   91  A    between atoms: _254  and  _255
REMARK   92  A    between atoms: _258  and  _260
REMARK   93  A    between atoms: _260  and  _261
REMARK   94  A    between atoms: _260  and  _263
REMARK   95  A    between atoms: _266  and  _268
REMARK   96  A    between atoms: _268  and  _269
REMARK   97  A    between atoms: _268  and  _271
REMARK   98  A    between atoms: _271  and  _272
REMARK   99  A    between atoms: _275  and  _277
REMARK  100  A    between atoms: _277  and  _278
REMARK  101  A    between atoms: _280  and  _282
REMARK  102  A    between atoms: _282  and  _283
REMARK  103  A    between atoms: _282  and  _285
REMARK  104  A    between atoms: _285  and  _286
REMARK  105  A    between atoms: _288  and  _290
REMARK  106  A    between atoms: _290  and  _291
REMARK  107  A    between atoms: _290  and  _293
REMARK  108  A    between atoms: _293  and  _294
REMARK  109  A    between atoms: _297  and  _299
REMARK  110  A    between atoms: _299  and  _300
REMARK  111  A    between atoms: _299  and  _302
REMARK  112  A    between atoms: _302  and  _303
REMARK  113  A    between atoms: _306  and  _308
REMARK  114  A    between atoms: _308  and  _309
REMARK  115  A    between atoms: _308  and  _311
REMARK  116  A    between atoms: _311  and  _312
REMARK  117  A    between atoms: _316  and  _317
REMARK  118  A    between atoms: _323  and  _324
REMARK  119  A    between atoms: _329  and  _331
REMARK  120  A    between atoms: _331  and  _332
REMARK  121  A    between atoms: _331  and  _334
REMARK  122  A    between atoms: _334  and  _335
REMARK  123  A    between atoms: _338  and  _340
REMARK  124  A    between atoms: _340  and  _341
REMARK  125  A    between atoms: _340  and  _343
REMARK  126  A    between atoms: _343  and  _344
REMARK  127  A    between atoms: _347  and  _349
REMARK  128  A    between atoms: _349  and  _350
REMARK  129  A    between atoms: _349  and  _352
REMARK  130  A    between atoms: _354  and  _356
REMARK  131  A    between atoms: _356  and  _357
REMARK  132  A    between atoms: _356  and  _359
REMARK  133  A    between atoms: _362  and  _364
REMARK  134  A    between atoms: _364  and  _365
REMARK  135  A    between atoms: _364  and  _367
REMARK  136  A    between atoms: _367  and  _368
REMARK  137  A    between atoms: _378  and  _380
REMARK  138  A    between atoms: _380  and  _381
REMARK  139  A    between atoms: _380  and  _383
REMARK  140  A    between atoms: _383  and  _384
REMARK  141  A    between atoms: _389  and  _391
REMARK  142  A    between atoms: _391  and  _392
REMARK  143  A    between atoms: _391  and  _394
REMARK  144  A    between atoms: _394  and  _395
REMARK  145  A    between atoms: _395  and  _396
REMARK  146  A    between atoms: _396  and  _397
REMARK                            x       y       z     vdW  Elec       q    Type
REMARK                         _______ _______ _______ _____ _____    ______ ____
ROOT
ATOM      1  CA  VAL A   1      -4.049  11.576  19.985  0.00  0.00    +0.133 C 
ENDROOT
BRANCH   1   2
ATOM      2  CB  VAL A   1      -3.328  10.904  18.795  0.00  0.00    +0.023 C 
ATOM      3  CG2 VAL A   1      -2.393  11.854  18.054  0.00  0.00    +0.002 C 
ATOM      4  CG1 VAL A   1      -4.358  10.300  17.855  0.00  0.00    +0.002 C 
ENDBRANCH   1   2
BRANCH   1   5
ATOM      5  N   VAL A   1      -4.946  12.688  19.623  0.00  0.00    -0.239 NA
ATOM      6  H   VAL A   1      -4.892  13.120  18.679  0.00  0.00    +0.142 HD
ENDBRANCH   1   5
BRANCH   1   7
ATOM      7  C   VAL A   1      -2.960  11.997  20.972  0.00  0.00    +0.224 C 
ATOM      8  O   VAL A   1      -2.262  11.153  21.556  0.00  0.00    -0.287 OA
ENDBRANCH   1   7
TORSDOF 3
REMARK  Name = ../refined-set-2016/3dc3/3dc3_pocket.pdb
REMARK  146 active torsions:
REMARK  status: ('A' for Active; 'I' for Inactive)
REMARK    1  A    between atoms: _1  and  _3
REMARK    2  A    between atoms: _3  and  _4
REMARK    3  A    between atoms: _3  and  _6
REMARK    4  A    between atoms: _6  and  _7
REMARK    5  A    between atoms: _17  and  _19
REMARK    6  A    between atoms: _19  and  _20
REMARK    7  A    between atoms: _19  and  _22
REMARK    8  A    between atoms: _22  and  _23
REMARK    9  A    between atoms: _28  and  _29
REMARK   10  A    between atoms: _31  and  _33
REMARK   11  A    between atoms: _33  and  _34
REMARK   12  A    between atoms: _33  and  _36
REMARK   13  A    between atoms: _36  and  _37
REMARK   14  A    between atoms: _40  and  _41
REMARK   15  A    between atoms: _46  and  _48
REMARK   16  A    between atoms: _48  and  _49
REMARK   17  A    between atoms: _48  and  _51
REMARK   18  A    between atoms: _51  and  _52
REMARK   19  A    between atoms: _57  and  _59
REMARK   20  A    between atoms: _59  and  _60
REMARK   21  A    between atoms: _59  and  _62
REMARK   22  A    between atoms: _62  and  _63
REMARK   23  A    between atoms: _65  and  _67
REMARK   24  A    between atoms: _67  and  _68
REMARK   25  A    between atoms: _67  and  _70
REMARK   26  A    between atoms: _70  and  _71
REMARK   27  A    between atoms: _71  and  _72
REMARK   28  A    between atoms: _77  and  _79
REMARK   29  A    between atoms: _79  and  _80
REMARK   30  A    between atoms: _79  and  _82
REMARK   31  A    between atoms: _82  and  _83
REMARK   32  A    between atoms: _86  and  _88
REMARK   33  A    between atoms: _88  and  _89
REMARK   34  A    between atoms: _88  and  _91
REMARK   35  A    between atoms: _91  and  _92
REMARK   36  A    between atoms: _92  and  _93
REMARK   37  A    between atoms: _98  and  _100
REMARK   38  A    between atoms: _100  and  _101
REMARK   39  A    between atoms: _100  and  _103
REMARK   40  A    between atoms: _103  and  _104
REMARK   41  A    between atoms: _110  and  _112
REMARK   42  A    between atoms: _123  and  _126
REMARK   43  A    between atoms: _126  and  _127
REMARK   44  A    between atoms: _135  and  _136
REMARK   45  A    between atoms: _144  and  _146
REMARK   46  A    between atoms: _146  and  _147
REMARK   47  A    between atoms: _146  and  _149
REMARK   48  A    between atoms: _149  and  _150
REMARK   49  A    between atoms: _150  and  _151
REMARK   50  A    between atoms: _154  and  _156
REMARK   51  A    between atoms: _156  and  _157
REMARK   52  A    between atoms: _156  and  _159
REMARK   53  A    between atoms: _159  and  _160
REMARK   54  A    between atoms: _165  and  _167
REMARK   55  A    between atoms: _167  and  _168
REMARK   56  A    between atoms: _167  and  _170
REMARK   57  A    between atoms: _170  and  _171
REMARK   58  A    between atoms: _171  and  _172
REMARK   59  A    between atoms: _175  and  _177
REMARK   60  A    between atoms: _177  and  _178
REMARK   61  A    between atoms: _177  and  _180
REMARK   62  A    between atoms: _180  and  _181
REMARK   63  A    between atoms: _184  and  _186
REMARK   64  A    between atoms: _186  and  _187
REMARK   65  A    between atoms: _186  and  _189
REMARK   66  A    between atoms: _189  and  _190
REMARK   67  A    between atoms: _191  and  ZN_406
REMARK   68  A    between atoms: _195  and  _197
REMARK   69  A    between atoms: _197  and  _198
REMARK   70  A    between atoms: _197  and  _200
REMARK   71  A    between atoms: _200  and  _201
REMARK   72  A    between atoms: _204  and  _206
REMARK   73  A    between atoms: _206  and  _207
REMARK   74  A    between atoms: _206  and  _209
REMARK   75  A    between atoms: _212  and  _214
REMARK   76  A    between atoms: _214  and  _215
REMARK   77  A    between atoms: _214  and  _217
REMARK   78  A    between atoms: _217  and  _218
REMARK   79  A    between atoms: _223  and  _225
REMARK   80  A    between atoms: _225  and  _226
REMARK   81  A    between atoms: _225  and  _228
REMARK   82  A    between atoms: _228  and  _229
REMARK   83  A    between atoms: _235  and  _237
REMARK   84  A    between atoms: _237  and  _238
REMARK   85  A    between atoms: _237  and  _240
REMARK   86  A    between atoms: _243  and  _245
REMARK   87  A    between atoms: _245  and  _246
REMARK   88  A    between atoms: _245  and  _248
REMARK   89  A    between atoms: _248  and  _249
REMARK   90  A    between atoms: _252  and  _254
REMARK   91  A    between atoms: _254  and  _255
REMARK   92  A    between atoms: _258  and  _260
REMARK   93  A    between atoms: _260  and  _261
REMARK   94  A    between atoms: _260  and  _263
REMARK   95  A    between atoms: _266  and  _268
REMARK   96  A    between atoms: _268  and  _269
REMARK   97  A    between atoms: _268  and  _271
REMARK   98  A    between atoms: _271  and  _272
REMARK   99  A    between atoms: _275  and  _277
REMARK  100  A    between atoms: _277  and  _278
REMARK  101  A    between atoms: _280  and  _282
REMARK  102  A    between atoms: _282  and  _283
REMARK  103  A    between atoms: _282  and  _285
REMARK  104  A    between atoms: _285  and  _286
REMARK  105  A    between atoms: _288  and  _290
REMARK  106  A    between atoms: _290  and  _291
REMARK  107  A    between atoms: _290  and  _293
REMARK  108  A    between atoms: _293  and  _294
REMARK  109  A    between atoms: _297  and  _299
REMARK  110  A    between atoms: _299  and  _300
REMARK  111  A    between atoms: _299  and  _302
REMARK  112  A    between atoms: _302  and  _303
REMARK  113  A    between atoms: _306  and  _308
REMARK  114  A    between atoms: _308  and  _309
REMARK  115  A    between atoms: _308  and  _311
REMARK  116  A    between atoms: _311  and  _312
REMARK  117  A    between atoms: _316  and  _317
REMARK  118  A    between atoms: _323  and  _324
REMARK  119  A    between atoms: _329  and  _331
REMARK  120  A    between atoms: _331  and  _332
REMARK  121  A    between atoms: _331  and  _334
REMARK  122  A    between atoms: _334  and  _335
REMARK  123  A    between atoms: _338  and  _340
REMARK  124  A    between atoms: _340  and  _341
REMARK  125  A    between atoms: _340  and  _343
REMARK  126  A    between atoms: _343  and  _344
REMARK  127  A    between atoms: _347  and  _349
REMARK  128  A    between atoms: _349  and  _350
REMARK  129  A    between atoms: _349  and  _352
REMARK  130  A    between atoms: _354  and  _356
REMARK  131  A    between atoms: _356  and  _357
REMARK  132  A    between atoms: _356  and  _359
REMARK  133  A    between atoms: _362  and  _364
REMARK  134  A    between atoms: _364  and  _365
REMARK  135  A    between atoms: _364  and  _367
REMARK  136  A    between atoms: _367  and  _368
REMARK  137  A    between atoms: _378  and  _380
REMARK  138  A    between atoms: _380  and  _381
REMARK  139  A    between atoms: _380  and  _383
REMARK  140  A    between atoms: _383  and  _384
REMARK  141  A    between atoms: _389  and  _391
REMARK  142  A    between atoms: _391  and  _392
REMARK  143  A    between atoms: _391  and  _394
REMARK  144  A    between atoms: _394  and  _395
REMARK  145  A    between atoms: _395  and  _396
REMARK  146  A    between atoms: _396  and  _397
REMARK                            x       y       z     vdW  Elec       q    Type
REMARK                         _______ _______ _______ _____ _____    ______ ____
ROOT
ATOM      1  C   ALA A   2     -12.430   4.953  20.903  0.00  0.00    +0.241 C 
ATOM      2  N   VAL A   3     -11.960   3.736  21.173  0.00  0.00    -0.297 N 
ATOM      3  H   VAL A   3     -11.530   3.520  22.095  0.00  0.00    +0.150 HD
ATOM      4  O   ALA A   2     -12.894   5.276  19.810  0.00  0.00    -0.273 OA
ENDROOT
BRANCH   1   5
ATOM      5  CA  ALA A   2     -12.319   5.962  22.042  0.00  0.00    +0.149 C 
ATOM      6  CB  ALA A   2     -13.648   6.415  22.619  0.00  0.00    +0.031 C 
BRANCH   5   9
ATOM      7  C   LEU A   1     -10.563   7.589  22.223  0.00  0.00    +0.238 C 
ATOM      8  O   LEU A   1     -10.335   7.282  23.394  0.00  0.00    -0.274 OA
ATOM      9  N   ALA A   2     -11.566   7.095  21.493  0.00  0.00    -0.297 N 
ATOM     10  H   ALA A   2     -11.806   7.500  20.566  0.00  0.00    +0.150 HD
BRANCH   7  11
ATOM     11  CA  LEU A   1      -9.700   8.573  21.444  0.00  0.00    +0.145 C 
BRANCH  11  12
ATOM     12  N   LEU A   1      -9.050   9.529  22.333  0.00  0.00    -0.238 NA
ATOM     13  H   LEU A   1      -8.443   9.175  23.100  0.00  0.00    +0.142 HD
ENDBRANCH  11  12
BRANCH  11  14
ATOM     14  CB  LEU A   1      -8.660   7.774  20.666  0.00  0.00    +0.026 C 
BRANCH  14  15
ATOM     15  CG  LEU A   1      -7.682   8.469  19.721  0.00  0.00    +0.002 C 
ATOM     16  CD2 LEU A   1      -8.281   9.659  18.994  0.00  0.00    +0.000 C 
ATOM     17  CD1 LEU A   1      -7.119   7.454  18.707  0.00  0.00    +0.000 C 
ENDBRANCH  14  15
ENDBRANCH  11  14
ENDBRANCH   7  11
ENDBRANCH   5   9
ENDBRANCH   1   5
BRANCH   2  18
ATOM     18  CA  VAL A   3     -12.067   2.709  20.129  0.00  0.00    +0.149 C 
BRANCH  18  19
ATOM     19  C   VAL A   3     -13.033   1.626  20.599  0.00  0.00    +0.241 C 
ATOM     20  O   VAL A   3     -12.851   1.136  21.716  0.00  0.00    -0.273 OA
ATOM     21  N   LEU A   4     -13.998   1.317  19.754  0.00  0.00    -0.298 N 
ATOM     22  H   LEU A   4     -14.082   1.862  18.872  0.00  0.00    +0.150 HD
BRANCH  21  23
ATOM     23  CA  LEU A   4     -14.957   0.237  20.007  0.00  0.00    +0.137 C 
BRANCH  23  24
ATOM     24  C   LEU A   4     -14.383  -1.040  19.421  0.00  0.00    +0.227 C 
ATOM     25  O   LEU A   4     -14.104  -1.036  18.209  0.00  0.00    -0.286 OA
ENDBRANCH  23  24
BRANCH  23  26
ATOM     26  CB  LEU A   4     -16.258   0.646  19.336  0.00  0.00    +0.028 C 
BRANCH  26  27
ATOM     27  CG  LEU A   4     -17.574   0.054  19.791  0.00  0.00    +0.002 C 
ATOM     28  CD2 LEU A   4     -17.791   0.311  21.268  0.00  0.00    +0.000 C 
ATOM     29  CD1 LEU A   4     -18.700   0.646  18.935  0.00  0.00    +0.000 C 
ENDBRANCH  26  27
ENDBRANCH  23  26
ENDBRANCH  21  23
ENDBRANCH  18  19
BRANCH  18  30
ATOM     30  CB  VAL A   3     -10.708   2.085  19.820  0.00  0.00    +0.027 C 
ATOM     31  CG2 VAL A   3      -9.704   3.183  19.456  0.00  0.00    +0.002 C 
ATOM     32  CG1 VAL A   3     -10.839   1.052  18.701  0.00  0.00    +0.002 C 
ENDBRANCH  18  30
ENDBRANCH   2  18
TORSDOF 13
REMARK  Name = ../refined-set-2016/3dc3/3dc3_pocket.pdb
REMARK  146 active torsions:
REMARK  status: ('A' for Active; 'I' for Inactive)
REMARK    1  A    between atoms: _1  and  _3
REMARK    2  A    between atoms: _3  and  _4
REMARK    3  A    between atoms: _3  and  _6
REMARK    4  A    between atoms: _6  and  _7
REMARK    5  A    between atoms: _17  and  _19
REMARK    6  A    between atoms: _19  and  _20
REMARK    7  A    between atoms: _19  and  _22
REMARK    8  A    between atoms: _22  and  _23
REMARK    9  A    between atoms: _28  and  _29
REMARK   10  A    between atoms: _31  and  _33
REMARK   11  A    between atoms: _33  and  _34
REMARK   12  A    between atoms: _33  and  _36
REMARK   13  A    between atoms: _36  and  _37
REMARK   14  A    between atoms: _40  and  _41
REMARK   15  A    between atoms: _46  and  _48
REMARK   16  A    between atoms: _48  and  _49
REMARK   17  A    between atoms: _48  and  _51
REMARK   18  A    between atoms: _51  and  _52
REMARK   19  A    between atoms: _57  and  _59
REMARK   20  A    between atoms: _59  and  _60
REMARK   21  A    between atoms: _59  and  _62
REMARK   22  A    between atoms: _62  and  _63
REMARK   23  A    between atoms: _65  and  _67
REMARK   24  A    between atoms: _67  and  _68
REMARK   25  A    between atoms: _67  and  _70
REMARK   26  A    between atoms: _70  and  _71
REMARK   27  A    between atoms: _71  and  _72
REMARK   28  A    between atoms: _77  and  _79
REMARK   29  A    between atoms: _79  and  _80
REMARK   30  A    between atoms: _79  and  _82
REMARK   31  A    between atoms: _82  and  _83
REMARK   32  A    between atoms: _86  and  _88
REMARK   33  A    between atoms: _88  and  _89
REMARK   34  A    between atoms: _88  and  _91
REMARK   35  A    between atoms: _91  and  _92
REMARK   36  A    between atoms: _92  and  _93
REMARK   37  A    between atoms: _98  and  _100
REMARK   38  A    between atoms: _100  and  _101
REMARK   39  A    between atoms: _100  and  _103
REMARK   40  A    between atoms: _103  and  _104
REMARK   41  A    between atoms: _110  and  _112
REMARK   42  A    between atoms: _123  and  _126
REMARK   43  A    between atoms: _126  and  _127
REMARK   44  A    between atoms: _135  and  _136
REMARK   45  A    between atoms: _144  and  _146
REMARK   46  A    between atoms: _146  and  _147
REMARK   47  A    between atoms: _146  and  _149
REMARK   48  A    between atoms: _149  and  _150
REMARK   49  A    between atoms: _150  and  _151
REMARK   50  A    between atoms: _154  and  _156
REMARK   51  A    between atoms: _156  and  _157
REMARK   52  A    between atoms: _156  and  _159
REMARK   53  A    between atoms: _159  and  _160
REMARK   54  A    between atoms: _165  and  _167
REMARK   55  A    between atoms: _167  and  _168
REMARK   56  A    between atoms: _167  and  _170
REMARK   57  A    between atoms: _170  and  _171
REMARK   58  A    between atoms: _171  and  _172
REMARK   59  A    between atoms: _175  and  _177
REMARK   60  A    between atoms: _177  and  _178
REMARK   61  A    between atoms: _177  and  _180
REMARK   62  A    between atoms: _180  and  _181
REMARK   63  A    between atoms: _184  and  _186
REMARK   64  A    between atoms: _186  and  _187
REMARK   65  A    between atoms: _186  and  _189
REMARK   66  A    between atoms: _189  and  _190
REMARK   67  A    between atoms: _191  and  ZN_406
REMARK   68  A    between atoms: _195  and  _197
REMARK   69  A    between atoms: _197  and  _198
REMARK   70  A    between atoms: _197  and  _200
REMARK   71  A    between atoms: _200  and  _201
REMARK   72  A    between atoms: _204  and  _206
REMARK   73  A    between atoms: _206  and  _207
REMARK   74  A    between atoms: _206  and  _209
REMARK   75  A    between atoms: _212  and  _214
REMARK   76  A    between atoms: _214  and  _215
REMARK   77  A    between atoms: _214  and  _217
REMARK   78  A    between atoms: _217  and  _218
REMARK   79  A    between atoms: _223  and  _225
REMARK   80  A    between atoms: _225  and  _226
REMARK   81  A    between atoms: _225  and  _228
REMARK   82  A    between atoms: _228  and  _229
REMARK   83  A    between atoms: _235  and  _237
REMARK   84  A    between atoms: _237  and  _238
REMARK   85  A    between atoms: _237  and  _240
REMARK   86  A    between atoms: _243  and  _245
REMARK   87  A    between atoms: _245  and  _246
REMARK   88  A    between atoms: _245  and  _248
REMARK   89  A    between atoms: _248  and  _249
REMARK   90  A    between atoms: _252  and  _254
REMARK   91  A    between atoms: _254  and  _255
REMARK   92  A    between atoms: _258  and  _260
REMARK   93  A    between atoms: _260  and  _261
REMARK   94  A    between atoms: _260  and  _263
REMARK   95  A    between atoms: _266  and  _268
REMARK   96  A    between atoms: _268  and  _269
REMARK   97  A    between atoms: _268  and  _271
REMARK   98  A    between atoms: _271  and  _272
REMARK   99  A    between atoms: _275  and  _277
REMARK  100  A    between atoms: _277  and  _278
REMARK  101  A    between atoms: _280  and  _282
REMARK  102  A    between atoms: _282  and  _283
REMARK  103  A    between atoms: _282  and  _285
REMARK  104  A    between atoms: _285  and  _286
REMARK  105  A    between atoms: _288  and  _290
REMARK  106  A    between atoms: _290  and  _291
REMARK  107  A    between atoms: _290  and  _293
REMARK  108  A    between atoms: _293  and  _294
REMARK  109  A    between atoms: _297  and  _299
REMARK  110  A    between atoms: _299  and  _300
REMARK  111  A    between atoms: _299  and  _302
REMARK  112  A    between atoms: _302  and  _303
REMARK  113  A    between atoms: _306  and  _308
REMARK  114  A    between atoms: _308  and  _309
REMARK  115  A    between atoms: _308  and  _311
REMARK  116  A    between atoms: _311  and  _312
REMARK  117  A    between atoms: _316  and  _317
REMARK  118  A    between atoms: _323  and  _324
REMARK  119  A    between atoms: _329  and  _331
REMARK  120  A    between atoms: _331  and  _332
REMARK  121  A    between atoms: _331  and  _334
REMARK  122  A    between atoms: _334  and  _335
REMARK  123  A    between atoms: _338  and  _340
REMARK  124  A    between atoms: _340  and  _341
REMARK  125  A    between atoms: _340  and  _343
REMARK  126  A    between atoms: _343  and  _344
REMARK  127  A    between atoms: _347  and  _349
REMARK  128  A    between atoms: _349  and  _350
REMARK  129  A    between atoms: _349  and  _352
REMARK  130  A    between atoms: _354  and  _356
REMARK  131  A    between atoms: _356  and  _357
REMARK  132  A    between atoms: _356  and  _359
REMARK  133  A    between atoms: _362  and  _364
REMARK  134  A    between atoms: _364  and  _365
REMARK  135  A    between atoms: _364  and  _367
REMARK  136  A    between atoms: _367  and  _368
REMARK  137  A    between atoms: _378  and  _380
REMARK  138  A    between atoms: _380  and  _381
REMARK  139  A    between atoms: _380  and  _383
REMARK  140  A    between atoms: _383  and  _384
REMARK  141  A    between atoms: _389  and  _391
REMARK  142  A    between atoms: _391  and  _392
REMARK  143  A    between atoms: _391  and  _394
REMARK  144  A    between atoms: _394  and  _395
REMARK  145  A    between atoms: _395  and  _396
REMARK  146  A    between atoms: _396  and  _397
REMARK                            x       y       z     vdW  Elec       q    Type
REMARK                         _______ _______ _______ _____ _____    ______ ____
ROOT
ATOM      1  CA  THR A   5       0.168   0.169  16.215  0.00  0.00    +0.176 C 
ENDROOT
BRANCH   1   2
ATOM      2  C   THR A   5       0.988   1.429  16.491  0.00  0.00    +0.246 C 
ATOM      3  O   THR A   5       0.448   2.335  17.129  0.00  0.00    -0.273 OA
ATOM      4  N   PRO A   6       2.239   1.459  16.037  0.00  0.00    -0.272 N 
ATOM      5  CA  PRO A   6       3.035   2.689  16.187  0.00  0.00    +0.152 C 
ATOM      6  CB  PRO A   6       4.271   2.389  15.328  0.00  0.00    +0.031 C 
ATOM      7  CG  PRO A   6       4.423   0.900  15.468  0.00  0.00    +0.024 C 
ATOM      8  CD  PRO A   6       2.998   0.379  15.383  0.00  0.00    +0.094 C 
BRANCH   5   9
ATOM      9  C   PRO A   6       2.253   3.877  15.664  0.00  0.00    +0.244 C 
ATOM     10  N   PRO A   7       2.310   5.043  16.294  0.00  0.00    -0.272 N 
ATOM     11  CA  PRO A   7       3.176   5.340  17.421  0.00  0.00    +0.152 C 
ATOM     12  CB  PRO A   7       3.209   6.890  17.363  0.00  0.00    +0.031 C 
ATOM     13  CG  PRO A   7       1.884   7.273  16.805  0.00  0.00    +0.024 C 
ATOM     14  CD  PRO A   7       1.522   6.207  15.814  0.00  0.00    +0.094 C 
ATOM     15  O   PRO A   6       1.545   3.775  14.649  0.00  0.00    -0.273 OA
BRANCH  11  16
ATOM     16  C   PRO A   7       2.752   4.916  18.824  0.00  0.00    +0.241 C 
ATOM     17  O   PRO A   7       3.418   5.356  19.773  0.00  0.00    -0.273 OA
ATOM     18  N   LEU A   8       1.740   4.085  19.025  0.00  0.00    -0.297 N 
ATOM     19  H   LEU A   8       1.129   3.872  18.211  0.00  0.00    +0.150 HD
BRANCH  18  20
ATOM     20  CA  LEU A   8       1.412   3.443  20.298  0.00  0.00    +0.149 C 
BRANCH  20  21
ATOM     21  C   LEU A   8       1.077   4.443  21.393  0.00  0.00    +0.241 C 
ATOM     22  O   LEU A   8       1.315   4.161  22.570  0.00  0.00    -0.273 OA
ATOM     23  N   LEU A   9       0.525   5.584  20.984  0.00  0.00    -0.298 N 
ATOM     24  H   LEU A   9       0.293   5.720  19.979  0.00  0.00    +0.150 HD
BRANCH  23  25
ATOM     25  CA  LEU A   9       0.247   6.641  21.948  0.00  0.00    +0.137 C 
BRANCH  25  26
ATOM     26  C   LEU A   9      -0.804   6.189  22.954  0.00  0.00    +0.227 C 
ATOM     27  O   LEU A   9      -1.782   5.530  22.585  0.00  0.00    -0.286 OA
ENDBRANCH  25  26
BRANCH  25  28
ATOM     28  CB  LEU A   9      -0.222   7.907  21.223  0.00  0.00    +0.028 C 
BRANCH  28  29
ATOM     29  CG  LEU A   9       0.831   8.462  20.248  0.00  0.00    +0.002 C 
ATOM     30  CD2 LEU A   9       2.046   8.949  21.027  0.00  0.00    +0.000 C 
ATOM     31  CD1 LEU A   9       0.230   9.564  19.400  0.00  0.00    +0.000 C 
ENDBRANCH  28  29
ENDBRANCH  25  28
ENDBRANCH  23  25
ENDBRANCH  20  21
BRANCH  20  32
ATOM     32  CB  LEU A   8       2.569   2.547  20.754  0.00  0.00    +0.029 C 
BRANCH  32  33
ATOM     33  CG  LEU A   8       2.996   1.487  19.723  0.00  0.00    +0.002 C 
ATOM     34  CD2 LEU A   8       4.370   0.940  20.068  0.00  0.00    +0.000 C 
ATOM     35  CD1 LEU A   8       1.967   0.378  19.655  0.00  0.00    +0.000 C 
ENDBRANCH  32  33
ENDBRANCH  20  32
ENDBRANCH  18  20
ENDBRANCH  11  16
ENDBRANCH   5   9
ENDBRANCH   1   2
BRANCH   1  38
ATOM     36  C   THR A   4      -1.010  -1.007  17.979  0.00  0.00    +0.243 C 
ATOM     37  O   THR A   4      -0.409  -2.062  17.769  0.00  0.00    -0.273 OA
ATOM     38  N   THR A   5      -0.878   0.104  17.245  0.00  0.00    -0.295 N 
ATOM     39  H   THR A   5      -1.510   0.915  17.402  0.00  0.00    +0.150 HD
BRANCH  36  40
ATOM     40  CA  THR A   4      -2.004  -0.952  19.150  0.00  0.00    +0.176 C 
BRANCH  40  43
ATOM     41  C   LEU A   3      -2.286   1.265  20.015  0.00  0.00    +0.241 C 
ATOM     42  O   LEU A   3      -1.297   1.100  20.757  0.00  0.00    -0.273 OA
ATOM     43  N   THR A   4      -2.713   0.325  19.164  0.00  0.00    -0.295 N 
ATOM     44  H   THR A   4      -3.522   0.498  18.534  0.00  0.00    +0.150 HD
BRANCH  41  45
ATOM     45  CA  LEU A   3      -3.082   2.575  20.004  0.00  0.00    +0.149 C 
BRANCH  45  48
ATOM     46  C   SER A   2      -3.585   2.420  22.360  0.00  0.00    +0.243 C 
ATOM     47  O   SER A   2      -4.345   1.477  22.179  0.00  0.00    -0.273 OA
ATOM     48  N   LEU A   3      -3.082   3.136  21.348  0.00  0.00    -0.297 N 
ATOM     49  H   LEU A   3      -2.694   4.086  21.520  0.00  0.00    +0.150 HD
BRANCH  46  50
ATOM     50  CA  SER A   2      -3.166   2.792  23.779  0.00  0.00    +0.178 C 
BRANCH  50  53
ATOM     51  C   GLY A   1      -4.390   2.793  25.884  0.00  0.00    +0.240 C 
ATOM     52  O   GLY A   1      -4.301   4.013  26.030  0.00  0.00    -0.274 OA
ATOM     53  N   SER A   2      -3.954   2.107  24.821  0.00  0.00    -0.295 N 
ATOM     54  H   SER A   2      -4.170   1.094  24.730  0.00  0.00    +0.150 HD
BRANCH  51  55
ATOM     55  CA  GLY A   1      -5.025   1.941  26.968  0.00  0.00    +0.169 C 
BRANCH  55  56
ATOM     56  N   GLY A   1      -6.120   2.614  27.672  0.00  0.00    -0.236 NA
ATOM     57  H   GLY A   1      -6.701   3.337  27.202  0.00  0.00    +0.142 HD
ENDBRANCH  55  56
ENDBRANCH  51  55
ENDBRANCH  50  53
BRANCH  50  58
ATOM     58  CB  SER A   2      -1.688   2.427  23.968  0.00  0.00    +0.166 C 
BRANCH  58  59
ATOM     59  OG  SER A   2      -1.390   1.115  23.456  0.00  0.00    -0.380 OA
ATOM     60  H   SER A   2      -1.596   1.085  22.488  0.00  0.00    +0.211 HD
ENDBRANCH  58  59
ENDBRANCH  50  58
ENDBRANCH  46  50
ENDBRANCH  45  48
BRANCH  45  61
ATOM     61  CB  LEU A   3      -2.438   3.545  19.015  0.00  0.00    +0.029 C 
BRANCH  61  62
ATOM     62  CG  LEU A   3      -3.075   4.943  18.933  0.00  0.00    +0.002 C 
ATOM     63  CD2 LEU A   3      -4.518   4.887  18.465  0.00  0.00    +0.000 C 
ATOM     64  CD1 LEU A   3      -2.227   5.813  17.999  0.00  0.00    +0.000 C 
ENDBRANCH  61  62
ENDBRANCH  45  61
ENDBRANCH  41  45
ENDBRANCH  40  43
BRANCH  40  65
ATOM     65  CB  THR A   4      -2.946  -2.172  19.074  0.00  0.00    +0.137 C 
ATOM     66  CG2 THR A   4      -3.914  -2.167  20.268  0.00  0.00    +0.034 C 
BRANCH  65  67
ATOM     67  OG1 THR A   4      -3.672  -2.133  17.833  0.00  0.00    -0.382 OA
ATOM     68  HG1 THR A   4      -4.277  -2.915  17.781  0.00  0.00    +0.210 HD
ENDBRANCH  65  67
ENDBRANCH  40  65
ENDBRANCH  36  40
ENDBRANCH   1  38
BRANCH   1  69
ATOM     69  CB  THR A   5      -0.371   0.229  14.777  0.00  0.00    +0.137 C 
ATOM     70  CG2 THR A   5      -1.197  -1.008  14.447  0.00  0.00    +0.034 C 
BRANCH  69  71
ATOM     71  OG1 THR A   5      -1.228   1.387  14.666  0.00  0.00    -0.382 OA
ATOM     72  HG1 THR A   5      -0.706   2.203  14.869  0.00  0.00    +0.210 HD
ENDBRANCH  69  71
ENDBRANCH   1  69
TORSDOF 28
REMARK  Name = ../refined-set-2016/3dc3/3dc3_pocket.pdb
REMARK  146 active torsions:
REMARK  status: ('A' for Active; 'I' for Inactive)
REMARK    1  A    between atoms: _1  and  _3
REMARK    2  A    between atoms: _3  and  _4
REMARK    3  A    between atoms: _3  and  _6
REMARK    4  A    between atoms: _6  and  _7
REMARK    5  A    between atoms: _17  and  _19
REMARK    6  A    between atoms: _19  and  _20
REMARK    7  A    between atoms: _19  and  _22
REMARK    8  A    between atoms: _22  and  _23
REMARK    9  A    between atoms: _28  and  _29
REMARK   10  A    between atoms: _31  and  _33
REMARK   11  A    between atoms: _33  and  _34
REMARK   12  A    between atoms: _33  and  _36
REMARK   13  A    between atoms: _36  and  _37
REMARK   14  A    between atoms: _40  and  _41
REMARK   15  A    between atoms: _46  and  _48
REMARK   16  A    between atoms: _48  and  _49
REMARK   17  A    between atoms: _48  and  _51
REMARK   18  A    between atoms: _51  and  _52
REMARK   19  A    between atoms: _57  and  _59
REMARK   20  A    between atoms: _59  and  _60
REMARK   21  A    between atoms: _59  and  _62
REMARK   22  A    between atoms: _62  and  _63
REMARK   23  A    between atoms: _65  and  _67
REMARK   24  A    between atoms: _67  and  _68
REMARK   25  A    between atoms: _67  and  _70
REMARK   26  A    between atoms: _70  and  _71
REMARK   27  A    between atoms: _71  and  _72
REMARK   28  A    between atoms: _77  and  _79
REMARK   29  A    between atoms: _79  and  _80
REMARK   30  A    between atoms: _79  and  _82
REMARK   31  A    between atoms: _82  and  _83
REMARK   32  A    between atoms: _86  and  _88
REMARK   33  A    between atoms: _88  and  _89
REMARK   34  A    between atoms: _88  and  _91
REMARK   35  A    between atoms: _91  and  _92
REMARK   36  A    between atoms: _92  and  _93
REMARK   37  A    between atoms: _98  and  _100
REMARK   38  A    between atoms: _100  and  _101
REMARK   39  A    between atoms: _100  and  _103
REMARK   40  A    between atoms: _103  and  _104
REMARK   41  A    between atoms: _110  and  _112
REMARK   42  A    between atoms: _123  and  _126
REMARK   43  A    between atoms: _126  and  _127
REMARK   44  A    between atoms: _135  and  _136
REMARK   45  A    between atoms: _144  and  _146
REMARK   46  A    between atoms: _146  and  _147
REMARK   47  A    between atoms: _146  and  _149
REMARK   48  A    between atoms: _149  and  _150
REMARK   49  A    between atoms: _150  and  _151
REMARK   50  A    between atoms: _154  and  _156
REMARK   51  A    between atoms: _156  and  _157
REMARK   52  A    between atoms: _156  and  _159
REMARK   53  A    between atoms: _159  and  _160
REMARK   54  A    between atoms: _165  and  _167
REMARK   55  A    between atoms: _167  and  _168
REMARK   56  A    between atoms: _167  and  _170
REMARK   57  A    between atoms: _170  and  _171
REMARK   58  A    between atoms: _171  and  _172
REMARK   59  A    between atoms: _175  and  _177
REMARK   60  A    between atoms: _177  and  _178
REMARK   61  A    between atoms: _177  and  _180
REMARK   62  A    between atoms: _180  and  _181
REMARK   63  A    between atoms: _184  and  _186
REMARK   64  A    between atoms: _186  and  _187
REMARK   65  A    between atoms: _186  and  _189
REMARK   66  A    between atoms: _189  and  _190
REMARK   67  A    between atoms: _191  and  ZN_406
REMARK   68  A    between atoms: _195  and  _197
REMARK   69  A    between atoms: _197  and  _198
REMARK   70  A    between atoms: _197  and  _200
REMARK   71  A    between atoms: _200  and  _201
REMARK   72  A    between atoms: _204  and  _206
REMARK   73  A    between atoms: _206  and  _207
REMARK   74  A    between atoms: _206  and  _209
REMARK   75  A    between atoms: _212  and  _214
REMARK   76  A    between atoms: _214  and  _215
REMARK   77  A    between atoms: _214  and  _217
REMARK   78  A    between atoms: _217  and  _218
REMARK   79  A    between atoms: _223  and  _225
REMARK   80  A    between atoms: _225  and  _226
REMARK   81  A    between atoms: _225  and  _228
REMARK   82  A    between atoms: _228  and  _229
REMARK   83  A    between atoms: _235  and  _237
REMARK   84  A    between atoms: _237  and  _238
REMARK   85  A    between atoms: _237  and  _240
REMARK   86  A    between atoms: _243  and  _245
REMARK   87  A    between atoms: _245  and  _246
REMARK   88  A    between atoms: _245  and  _248
REMARK   89  A    between atoms: _248  and  _249
REMARK   90  A    between atoms: _252  and  _254
REMARK   91  A    between atoms: _254  and  _255
REMARK   92  A    between atoms: _258  and  _260
REMARK   93  A    between atoms: _260  and  _261
REMARK   94  A    between atoms: _260  and  _263
REMARK   95  A    between atoms: _266  and  _268
REMARK   96  A    between atoms: _268  and  _269
REMARK   97  A    between atoms: _268  and  _271
REMARK   98  A    between atoms: _271  and  _272
REMARK   99  A    between atoms: _275  and  _277
REMARK  100  A    between atoms: _277  and  _278
REMARK  101  A    between atoms: _280  and  _282
REMARK  102  A    between atoms: _282  and  _283
REMARK  103  A    between atoms: _282  and  _285
REMARK  104  A    between atoms: _285  and  _286
REMARK  105  A    between atoms: _288  and  _290
REMARK  106  A    between atoms: _290  and  _291
REMARK  107  A    between atoms: _290  and  _293
REMARK  108  A    between atoms: _293  and  _294
REMARK  109  A    between atoms: _297  and  _299
REMARK  110  A    between atoms: _299  and  _300
REMARK  111  A    between atoms: _299  and  _302
REMARK  112  A    between atoms: _302  and  _303
REMARK  113  A    between atoms: _306  and  _308
REMARK  114  A    between atoms: _308  and  _309
REMARK  115  A    between atoms: _308  and  _311
REMARK  116  A    between atoms: _311  and  _312
REMARK  117  A    between atoms: _316  and  _317
REMARK  118  A    between atoms: _323  and  _324
REMARK  119  A    between atoms: _329  and  _331
REMARK  120  A    between atoms: _331  and  _332
REMARK  121  A    between atoms: _331  and  _334
REMARK  122  A    between atoms: _334  and  _335
REMARK  123  A    between atoms: _338  and  _340
REMARK  124  A    between atoms: _340  and  _341
REMARK  125  A    between atoms: _340  and  _343
REMARK  126  A    between atoms: _343  and  _344
REMARK  127  A    between atoms: _347  and  _349
REMARK  128  A    between atoms: _349  and  _350
REMARK  129  A    between atoms: _349  and  _352
REMARK  130  A    between atoms: _354  and  _356
REMARK  131  A    between atoms: _356  and  _357
REMARK  132  A    between atoms: _356  and  _359
REMARK  133  A    between atoms: _362  and  _364
REMARK  134  A    between atoms: _364  and  _365
REMARK  135  A    between atoms: _364  and  _367
REMARK  136  A    between atoms: _367  and  _368
REMARK  137  A    between atoms: _378  and  _380
REMARK  138  A    between atoms: _380  and  _381
REMARK  139  A    between atoms: _380  and  _383
REMARK  140  A    between atoms: _383  and  _384
REMARK  141  A    between atoms: _389  and  _391
REMARK  142  A    between atoms: _391  and  _392
REMARK  143  A    between atoms: _391  and  _394
REMARK  144  A    between atoms: _394  and  _395
REMARK  145  A    between atoms: _395  and  _396
REMARK  146  A    between atoms: _396  and  _397
REMARK                            x       y       z     vdW  Elec       q    Type
REMARK                         _______ _______ _______ _____ _____    ______ ____
ROOT
ATOM      1  C   CYS A   1      -6.006   7.529  24.133  0.00  0.00    +0.239 C 
ATOM      2  N   VAL A   2      -6.147   6.252  24.442  0.00  0.00    -0.298 N 
ATOM      3  H   VAL A   2      -5.392   5.761  24.961  0.00  0.00    +0.150 HD
ATOM      4  O   CYS A   1      -6.936   8.192  23.685  0.00  0.00    -0.274 OA
ENDROOT
BRANCH   1   5
ATOM      5  CA  CYS A   1      -4.630   8.174  24.304  0.00  0.00    +0.156 C 
BRANCH   5   6
ATOM      6  N   CYS A   1      -3.576   7.180  24.430  0.00  0.00    -0.237 NA
ATOM      7  H   CYS A   1      -3.510   6.449  23.694  0.00  0.00    +0.142 HD
ENDBRANCH   5   6
BRANCH   5   8
ATOM      8  CB  CYS A   1      -4.390   9.052  23.064  0.00  0.00    +0.095 C 
ATOM      9  SG  CYS A   1      -4.215   8.067  21.532  0.00  0.00    -0.080 S 
ENDBRANCH   5   8
ENDBRANCH   1   5
BRANCH   2  10
ATOM     10  CA  VAL A   2      -7.361   5.521  24.058  0.00  0.00    +0.137 C 
BRANCH  10  11
ATOM     11  CB  VAL A   2      -7.066   4.270  23.193  0.00  0.00    +0.026 C 
ATOM     12  CG2 VAL A   2      -8.359   3.544  22.816  0.00  0.00    +0.002 C 
ATOM     13  CG1 VAL A   2      -6.281   4.623  21.940  0.00  0.00    +0.002 C 
ENDBRANCH  10  11
BRANCH  10  14
ATOM     14  C   VAL A   2      -8.116   5.029  25.282  0.00  0.00    +0.227 C 
ATOM     15  O   VAL A   2      -7.551   4.401  26.178  0.00  0.00    -0.286 OA
ENDBRANCH  10  14
ENDBRANCH   2  10
TORSDOF 6
REMARK  Name = ../refined-set-2016/3dc3/3dc3_pocket.pdb
REMARK  146 active torsions:
REMARK  status: ('A' for Active; 'I' for Inactive)
REMARK    1  A    between atoms: _1  and  _3
REMARK    2  A    between atoms: _3  and  _4
REMARK    3  A    between atoms: _3  and  _6
REMARK    4  A    between atoms: _6  and  _7
REMARK    5  A    between atoms: _17  and  _19
REMARK    6  A    between atoms: _19  and  _20
REMARK    7  A    between atoms: _19  and  _22
REMARK    8  A    between atoms: _22  and  _23
REMARK    9  A    between atoms: _28  and  _29
REMARK   10  A    between atoms: _31  and  _33
REMARK   11  A    between atoms: _33  and  _34
REMARK   12  A    between atoms: _33  and  _36
REMARK   13  A    between atoms: _36  and  _37
REMARK   14  A    between atoms: _40  and  _41
REMARK   15  A    between atoms: _46  and  _48
REMARK   16  A    between atoms: _48  and  _49
REMARK   17  A    between atoms: _48  and  _51
REMARK   18  A    between atoms: _51  and  _52
REMARK   19  A    between atoms: _57  and  _59
REMARK   20  A    between atoms: _59  and  _60
REMARK   21  A    between atoms: _59  and  _62
REMARK   22  A    between atoms: _62  and  _63
REMARK   23  A    between atoms: _65  and  _67
REMARK   24  A    between atoms: _67  and  _68
REMARK   25  A    between atoms: _67  and  _70
REMARK   26  A    between atoms: _70  and  _71
REMARK   27  A    between atoms: _71  and  _72
REMARK   28  A    between atoms: _77  and  _79
REMARK   29  A    between atoms: _79  and  _80
REMARK   30  A    between atoms: _79  and  _82
REMARK   31  A    between atoms: _82  and  _83
REMARK   32  A    between atoms: _86  and  _88
REMARK   33  A    between atoms: _88  and  _89
REMARK   34  A    between atoms: _88  and  _91
REMARK   35  A    between atoms: _91  and  _92
REMARK   36  A    between atoms: _92  and  _93
REMARK   37  A    between atoms: _98  and  _100
REMARK   38  A    between atoms: _100  and  _101
REMARK   39  A    between atoms: _100  and  _103
REMARK   40  A    between atoms: _103  and  _104
REMARK   41  A    between atoms: _110  and  _112
REMARK   42  A    between atoms: _123  and  _126
REMARK   43  A    between atoms: _126  and  _127
REMARK   44  A    between atoms: _135  and  _136
REMARK   45  A    between atoms: _144  and  _146
REMARK   46  A    between atoms: _146  and  _147
REMARK   47  A    between atoms: _146  and  _149
REMARK   48  A    between atoms: _149  and  _150
REMARK   49  A    between atoms: _150  and  _151
REMARK   50  A    between atoms: _154  and  _156
REMARK   51  A    between atoms: _156  and  _157
REMARK   52  A    between atoms: _156  and  _159
REMARK   53  A    between atoms: _159  and  _160
REMARK   54  A    between atoms: _165  and  _167
REMARK   55  A    between atoms: _167  and  _168
REMARK   56  A    between atoms: _167  and  _170
REMARK   57  A    between atoms: _170  and  _171
REMARK   58  A    between atoms: _171  and  _172
REMARK   59  A    between atoms: _175  and  _177
REMARK   60  A    between atoms: _177  and  _178
REMARK   61  A    between atoms: _177  and  _180
REMARK   62  A    between atoms: _180  and  _181
REMARK   63  A    between atoms: _184  and  _186
REMARK   64  A    between atoms: _186  and  _187
REMARK   65  A    between atoms: _186  and  _189
REMARK   66  A    between atoms: _189  and  _190
REMARK   67  A    between atoms: _191  and  ZN_406
REMARK   68  A    between atoms: _195  and  _197
REMARK   69  A    between atoms: _197  and  _198
REMARK   70  A    between atoms: _197  and  _200
REMARK   71  A    between atoms: _200  and  _201
REMARK   72  A    between atoms: _204  and  _206
REMARK   73  A    between atoms: _206  and  _207
REMARK   74  A    between atoms: _206  and  _209
REMARK   75  A    between atoms: _212  and  _214
REMARK   76  A    between atoms: _214  and  _215
REMARK   77  A    between atoms: _214  and  _217
REMARK   78  A    between atoms: _217  and  _218
REMARK   79  A    between atoms: _223  and  _225
REMARK   80  A    between atoms: _225  and  _226
REMARK   81  A    between atoms: _225  and  _228
REMARK   82  A    between atoms: _228  and  _229
REMARK   83  A    between atoms: _235  and  _237
REMARK   84  A    between atoms: _237  and  _238
REMARK   85  A    between atoms: _237  and  _240
REMARK   86  A    between atoms: _243  and  _245
REMARK   87  A    between atoms: _245  and  _246
REMARK   88  A    between atoms: _245  and  _248
REMARK   89  A    between atoms: _248  and  _249
REMARK   90  A    between atoms: _252  and  _254
REMARK   91  A    between atoms: _254  and  _255
REMARK   92  A    between atoms: _258  and  _260
REMARK   93  A    between atoms: _260  and  _261
REMARK   94  A    between atoms: _260  and  _263
REMARK   95  A    between atoms: _266  and  _268
REMARK   96  A    between atoms: _268  and  _269
REMARK   97  A    between atoms: _268  and  _271
REMARK   98  A    between atoms: _271  and  _272
REMARK   99  A    between atoms: _275  and  _277
REMARK  100  A    between atoms: _277  and  _278
REMARK  101  A    between atoms: _280  and  _282
REMARK  102  A    between atoms: _282  and  _283
REMARK  103  A    between atoms: _282  and  _285
REMARK  104  A    between atoms: _285  and  _286
REMARK  105  A    between atoms: _288  and  _290
REMARK  106  A    between atoms: _290  and  _291
REMARK  107  A    between atoms: _290  and  _293
REMARK  108  A    between atoms: _293  and  _294
REMARK  109  A    between atoms: _297  and  _299
REMARK  110  A    between atoms: _299  and  _300
REMARK  111  A    between atoms: _299  and  _302
REMARK  112  A    between atoms: _302  and  _303
REMARK  113  A    between atoms: _306  and  _308
REMARK  114  A    between atoms: _308  and  _309
REMARK  115  A    between atoms: _308  and  _311
REMARK  116  A    between atoms: _311  and  _312
REMARK  117  A    between atoms: _316  and  _317
REMARK  118  A    between atoms: _323  and  _324
REMARK  119  A    between atoms: _329  and  _331
REMARK  120  A    between atoms: _331  and  _332
REMARK  121  A    between atoms: _331  and  _334
REMARK  122  A    between atoms: _334  and  _335
REMARK  123  A    between atoms: _338  and  _340
REMARK  124  A    between atoms: _340  and  _341
REMARK  125  A    between atoms: _340  and  _343
REMARK  126  A    between atoms: _343  and  _344
REMARK  127  A    between atoms: _347  and  _349
REMARK  128  A    between atoms: _349  and  _350
REMARK  129  A    between atoms: _349  and  _352
REMARK  130  A    between atoms: _354  and  _356
REMARK  131  A    between atoms: _356  and  _357
REMARK  132  A    between atoms: _356  and  _359
REMARK  133  A    between atoms: _362  and  _364
REMARK  134  A    between atoms: _364  and  _365
REMARK  135  A    between atoms: _364  and  _367
REMARK  136  A    between atoms: _367  and  _368
REMARK  137  A    between atoms: _378  and  _380
REMARK  138  A    between atoms: _380  and  _381
REMARK  139  A    between atoms: _380  and  _383
REMARK  140  A    between atoms: _383  and  _384
REMARK  141  A    between atoms: _389  and  _391
REMARK  142  A    between atoms: _391  and  _392
REMARK  143  A    between atoms: _391  and  _394
REMARK  144  A    between atoms: _394  and  _395
REMARK  145  A    between atoms: _395  and  _396
REMARK  146  A    between atoms: _396  and  _397
REMARK                            x       y       z     vdW  Elec       q    Type
REMARK                         _______ _______ _______ _____ _____    ______ ____
ROOT
ATOM      1  CG  TRP A   1      -8.874   0.057  24.265  0.00  0.00    -0.002 A 
ATOM      2  CD1 TRP A   1      -7.653   0.628  24.452  0.00  0.00    +0.068 A 
ATOM      3  NE1 TRP A   1      -6.933   0.563  23.275  0.00  0.00    -0.352 N 
ATOM      4  HE1 TRP A   1      -5.969   0.929  23.140  0.00  0.00    +0.166 HD
ATOM      5  CE2 TRP A   1      -7.684  -0.058  22.314  0.00  0.00    +0.056 A 
ATOM      6  CZ2 TRP A   1      -7.360  -0.341  20.979  0.00  0.00    +0.017 A 
ATOM      7  CH2 TRP A   1      -8.340  -0.981  20.261  0.00  0.00    +0.001 A 
ATOM      8  CZ3 TRP A   1      -9.580  -1.331  20.812  0.00  0.00    +0.000 A 
ATOM      9  CE3 TRP A   1      -9.896  -1.046  22.141  0.00  0.00    +0.001 A 
ATOM     10  CD2 TRP A   1      -8.912  -0.392  22.894  0.00  0.00    +0.013 A 
ENDROOT
BRANCH   1  11
ATOM     11  CB  TRP A   1     -10.000  -0.105  25.257  0.00  0.00    +0.053 C 
BRANCH  11  12
ATOM     12  CA  TRP A   1     -10.996   1.057  25.065  0.00  0.00    +0.137 C 
BRANCH  12  13
ATOM     13  N   TRP A   1     -10.503   2.244  25.770  0.00  0.00    -0.239 NA
ATOM     14  H   TRP A   1      -9.871   2.147  26.590  0.00  0.00    +0.142 HD
ENDBRANCH  12  13
BRANCH  12  15
ATOM     15  C   TRP A   1     -12.364   0.603  25.558  0.00  0.00    +0.224 C 
ATOM     16  O   TRP A   1     -12.581   0.486  26.768  0.00  0.00    -0.287 OA
ENDBRANCH  12  15
ENDBRANCH  11  12
ENDBRANCH   1  11
TORSDOF 4
REMARK  Name = ../refined-set-2016/3dc3/3dc3_pocket.pdb
REMARK  146 active torsions:
REMARK  status: ('A' for Active; 'I' for Inactive)
REMARK    1  A    between atoms: _1  and  _3
REMARK    2  A    between atoms: _3  and  _4
REMARK    3  A    between atoms: _3  and  _6
REMARK    4  A    between atoms: _6  and  _7
REMARK    5  A    between atoms: _17  and  _19
REMARK    6  A    between atoms: _19  and  _20
REMARK    7  A    between atoms: _19  and  _22
REMARK    8  A    between atoms: _22  and  _23
REMARK    9  A    between atoms: _28  and  _29
REMARK   10  A    between atoms: _31  and  _33
REMARK   11  A    between atoms: _33  and  _34
REMARK   12  A    between atoms: _33  and  _36
REMARK   13  A    between atoms: _36  and  _37
REMARK   14  A    between atoms: _40  and  _41
REMARK   15  A    between atoms: _46  and  _48
REMARK   16  A    between atoms: _48  and  _49
REMARK   17  A    between atoms: _48  and  _51
REMARK   18  A    between atoms: _51  and  _52
REMARK   19  A    between atoms: _57  and  _59
REMARK   20  A    between atoms: _59  and  _60
REMARK   21  A    between atoms: _59  and  _62
REMARK   22  A    between atoms: _62  and  _63
REMARK   23  A    between atoms: _65  and  _67
REMARK   24  A    between atoms: _67  and  _68
REMARK   25  A    between atoms: _67  and  _70
REMARK   26  A    between atoms: _70  and  _71
REMARK   27  A    between atoms: _71  and  _72
REMARK   28  A    between atoms: _77  and  _79
REMARK   29  A    between atoms: _79  and  _80
REMARK   30  A    between atoms: _79  and  _82
REMARK   31  A    between atoms: _82  and  _83
REMARK   32  A    between atoms: _86  and  _88
REMARK   33  A    between atoms: _88  and  _89
REMARK   34  A    between atoms: _88  and  _91
REMARK   35  A    between atoms: _91  and  _92
REMARK   36  A    between atoms: _92  and  _93
REMARK   37  A    between atoms: _98  and  _100
REMARK   38  A    between atoms: _100  and  _101
REMARK   39  A    between atoms: _100  and  _103
REMARK   40  A    between atoms: _103  and  _104
REMARK   41  A    between atoms: _110  and  _112
REMARK   42  A    between atoms: _123  and  _126
REMARK   43  A    between atoms: _126  and  _127
REMARK   44  A    between atoms: _135  and  _136
REMARK   45  A    between atoms: _144  and  _146
REMARK   46  A    between atoms: _146  and  _147
REMARK   47  A    between atoms: _146  and  _149
REMARK   48  A    between atoms: _149  and  _150
REMARK   49  A    between atoms: _150  and  _151
REMARK   50  A    between atoms: _154  and  _156
REMARK   51  A    between atoms: _156  and  _157
REMARK   52  A    between atoms: _156  and  _159
REMARK   53  A    between atoms: _159  and  _160
REMARK   54  A    between atoms: _165  and  _167
REMARK   55  A    between atoms: _167  and  _168
REMARK   56  A    between atoms: _167  and  _170
REMARK   57  A    between atoms: _170  and  _171
REMARK   58  A    between atoms: _171  and  _172
REMARK   59  A    between atoms: _175  and  _177
REMARK   60  A    between atoms: _177  and  _178
REMARK   61  A    between atoms: _177  and  _180
REMARK   62  A    between atoms: _180  and  _181
REMARK   63  A    between atoms: _184  and  _186
REMARK   64  A    between atoms: _186  and  _187
REMARK   65  A    between atoms: _186  and  _189
REMARK   66  A    between atoms: _189  and  _190
REMARK   67  A    between atoms: _191  and  ZN_406
REMARK   68  A    between atoms: _195  and  _197
REMARK   69  A    between atoms: _197  and  _198
REMARK   70  A    between atoms: _197  and  _200
REMARK   71  A    between atoms: _200  and  _201
REMARK   72  A    between atoms: _204  and  _206
REMARK   73  A    between atoms: _206  and  _207
REMARK   74  A    between atoms: _206  and  _209
REMARK   75  A    between atoms: _212  and  _214
REMARK   76  A    between atoms: _214  and  _215
REMARK   77  A    between atoms: _214  and  _217
REMARK   78  A    between atoms: _217  and  _218
REMARK   79  A    between atoms: _223  and  _225
REMARK   80  A    between atoms: _225  and  _226
REMARK   81  A    between atoms: _225  and  _228
REMARK   82  A    between atoms: _228  and  _229
REMARK   83  A    between atoms: _235  and  _237
REMARK   84  A    between atoms: _237  and  _238
REMARK   85  A    between atoms: _237  and  _240
REMARK   86  A    between atoms: _243  and  _245
REMARK   87  A    between atoms: _245  and  _246
REMARK   88  A    between atoms: _245  and  _248
REMARK   89  A    between atoms: _248  and  _249
REMARK   90  A    between atoms: _252  and  _254
REMARK   91  A    between atoms: _254  and  _255
REMARK   92  A    between atoms: _258  and  _260
REMARK   93  A    between atoms: _260  and  _261
REMARK   94  A    between atoms: _260  and  _263
REMARK   95  A    between atoms: _266  and  _268
REMARK   96  A    between atoms: _268  and  _269
REMARK   97  A    between atoms: _268  and  _271
REMARK   98  A    between atoms: _271  and  _272
REMARK   99  A    between atoms: _275  and  _277
REMARK  100  A    between atoms: _277  and  _278
REMARK  101  A    between atoms: _280  and  _282
REMARK  102  A    between atoms: _282  and  _283
REMARK  103  A    between atoms: _282  and  _285
REMARK  104  A    between atoms: _285  and  _286
REMARK  105  A    between atoms: _288  and  _290
REMARK  106  A    between atoms: _290  and  _291
REMARK  107  A    between atoms: _290  and  _293
REMARK  108  A    between atoms: _293  and  _294
REMARK  109  A    between atoms: _297  and  _299
REMARK  110  A    between atoms: _299  and  _300
REMARK  111  A    between atoms: _299  and  _302
REMARK  112  A    between atoms: _302  and  _303
REMARK  113  A    between atoms: _306  and  _308
REMARK  114  A    between atoms: _308  and  _309
REMARK  115  A    between atoms: _308  and  _311
REMARK  116  A    between atoms: _311  and  _312
REMARK  117  A    between atoms: _316  and  _317
REMARK  118  A    between atoms: _323  and  _324
REMARK  119  A    between atoms: _329  and  _331
REMARK  120  A    between atoms: _331  and  _332
REMARK  121  A    between atoms: _331  and  _334
REMARK  122  A    between atoms: _334  and  _335
REMARK  123  A    between atoms: _338  and  _340
REMARK  124  A    between atoms: _340  and  _341
REMARK  125  A    between atoms: _340  and  _343
REMARK  126  A    between atoms: _343  and  _344
REMARK  127  A    between atoms: _347  and  _349
REMARK  128  A    between atoms: _349  and  _350
REMARK  129  A    between atoms: _349  and  _352
REMARK  130  A    between atoms: _354  and  _356
REMARK  131  A    between atoms: _356  and  _357
REMARK  132  A    between atoms: _356  and  _359
REMARK  133  A    between atoms: _362  and  _364
REMARK  134  A    between atoms: _364  and  _365
REMARK  135  A    between atoms: _364  and  _367
REMARK  136  A    between atoms: _367  and  _368
REMARK  137  A    between atoms: _378  and  _380
REMARK  138  A    between atoms: _380  and  _381
REMARK  139  A    between atoms: _380  and  _383
REMARK  140  A    between atoms: _383  and  _384
REMARK  141  A    between atoms: _389  and  _391
REMARK  142  A    between atoms: _391  and  _392
REMARK  143  A    between atoms: _391  and  _394
REMARK  144  A    between atoms: _394  and  _395
REMARK  145  A    between atoms: _395  and  _396
REMARK  146  A    between atoms: _396  and  _397
REMARK                            x       y       z     vdW  Elec       q    Type
REMARK                         _______ _______ _______ _____ _____    ______ ____
ROOT
ATOM      1  CB  ASN A   1      -2.041  -7.295  10.611  0.00  0.00    +0.110 C 
ENDROOT
BRANCH   1   2
ATOM      2  CG  ASN A   1      -3.543  -7.277  10.509  0.00  0.00    +0.221 C 
ATOM      3  OD1 ASN A   1      -4.244  -8.109  11.098  0.00  0.00    -0.275 OA
ATOM      4  ND2 ASN A   1      -4.135  -6.352   9.747  0.00  0.00    -0.329 N 
ATOM      5 HD21 ASN A   1      -5.171  -6.339   9.656  0.00  0.00    +0.145 HD
ATOM      6 HD22 ASN A   1      -3.560  -5.646   9.245  0.00  0.00    +0.145 HD
ENDBRANCH   1   2
BRANCH   1   7
ATOM      7  CA  ASN A   1      -1.509  -8.201  11.724  0.00  0.00    +0.142 C 
BRANCH   7   8
ATOM      8  N   ASN A   1      -1.870  -9.601  11.472  0.00  0.00    -0.239 NA
ATOM      9  H   ASN A   1      -2.794  -9.834  11.055  0.00  0.00    +0.142 HD
ENDBRANCH   7   8
BRANCH   7  10
ATOM     10  C   ASN A   1      -2.067  -7.770  13.080  0.00  0.00    +0.225 C 
ATOM     11  O   ASN A   1      -2.732  -6.737  13.204  0.00  0.00    -0.287 OA
ENDBRANCH   7  10
ENDBRANCH   1   7
TORSDOF 4
REMARK  Name = ../refined-set-2016/3dc3/3dc3_pocket.pdb
REMARK  146 active torsions:
REMARK  status: ('A' for Active; 'I' for Inactive)
REMARK    1  A    between atoms: _1  and  _3
REMARK    2  A    between atoms: _3  and  _4
REMARK    3  A    between atoms: _3  and  _6
REMARK    4  A    between atoms: _6  and  _7
REMARK    5  A    between atoms: _17  and  _19
REMARK    6  A    between atoms: _19  and  _20
REMARK    7  A    between atoms: _19  and  _22
REMARK    8  A    between atoms: _22  and  _23
REMARK    9  A    between atoms: _28  and  _29
REMARK   10  A    between atoms: _31  and  _33
REMARK   11  A    between atoms: _33  and  _34
REMARK   12  A    between atoms: _33  and  _36
REMARK   13  A    between atoms: _36  and  _37
REMARK   14  A    between atoms: _40  and  _41
REMARK   15  A    between atoms: _46  and  _48
REMARK   16  A    between atoms: _48  and  _49
REMARK   17  A    between atoms: _48  and  _51
REMARK   18  A    between atoms: _51  and  _52
REMARK   19  A    between atoms: _57  and  _59
REMARK   20  A    between atoms: _59  and  _60
REMARK   21  A    between atoms: _59  and  _62
REMARK   22  A    between atoms: _62  and  _63
REMARK   23  A    between atoms: _65  and  _67
REMARK   24  A    between atoms: _67  and  _68
REMARK   25  A    between atoms: _67  and  _70
REMARK   26  A    between atoms: _70  and  _71
REMARK   27  A    between atoms: _71  and  _72
REMARK   28  A    between atoms: _77  and  _79
REMARK   29  A    between atoms: _79  and  _80
REMARK   30  A    between atoms: _79  and  _82
REMARK   31  A    between atoms: _82  and  _83
REMARK   32  A    between atoms: _86  and  _88
REMARK   33  A    between atoms: _88  and  _89
REMARK   34  A    between atoms: _88  and  _91
REMARK   35  A    between atoms: _91  and  _92
REMARK   36  A    between atoms: _92  and  _93
REMARK   37  A    between atoms: _98  and  _100
REMARK   38  A    between atoms: _100  and  _101
REMARK   39  A    between atoms: _100  and  _103
REMARK   40  A    between atoms: _103  and  _104
REMARK   41  A    between atoms: _110  and  _112
REMARK   42  A    between atoms: _123  and  _126
REMARK   43  A    between atoms: _126  and  _127
REMARK   44  A    between atoms: _135  and  _136
REMARK   45  A    between atoms: _144  and  _146
REMARK   46  A    between atoms: _146  and  _147
REMARK   47  A    between atoms: _146  and  _149
REMARK   48  A    between atoms: _149  and  _150
REMARK   49  A    between atoms: _150  and  _151
REMARK   50  A    between atoms: _154  and  _156
REMARK   51  A    between atoms: _156  and  _157
REMARK   52  A    between atoms: _156  and  _159
REMARK   53  A    between atoms: _159  and  _160
REMARK   54  A    between atoms: _165  and  _167
REMARK   55  A    between atoms: _167  and  _168
REMARK   56  A    between atoms: _167  and  _170
REMARK   57  A    between atoms: _170  and  _171
REMARK   58  A    between atoms: _171  and  _172
REMARK   59  A    between atoms: _175  and  _177
REMARK   60  A    between atoms: _177  and  _178
REMARK   61  A    between atoms: _177  and  _180
REMARK   62  A    between atoms: _180  and  _181
REMARK   63  A    between atoms: _184  and  _186
REMARK   64  A    between atoms: _186  and  _187
REMARK   65  A    between atoms: _186  and  _189
REMARK   66  A    between atoms: _189  and  _190
REMARK   67  A    between atoms: _191  and  ZN_406
REMARK   68  A    between atoms: _195  and  _197
REMARK   69  A    between atoms: _197  and  _198
REMARK   70  A    between atoms: _197  and  _200
REMARK   71  A    between atoms: _200  and  _201
REMARK   72  A    between atoms: _204  and  _206
REMARK   73  A    between atoms: _206  and  _207
REMARK   74  A    between atoms: _206  and  _209
REMARK   75  A    between atoms: _212  and  _214
REMARK   76  A    between atoms: _214  and  _215
REMARK   77  A    between atoms: _214  and  _217
REMARK   78  A    between atoms: _217  and  _218
REMARK   79  A    between atoms: _223  and  _225
REMARK   80  A    between atoms: _225  and  _226
REMARK   81  A    between atoms: _225  and  _228
REMARK   82  A    between atoms: _228  and  _229
REMARK   83  A    between atoms: _235  and  _237
REMARK   84  A    between atoms: _237  and  _238
REMARK   85  A    between atoms: _237  and  _240
REMARK   86  A    between atoms: _243  and  _245
REMARK   87  A    between atoms: _245  and  _246
REMARK   88  A    between atoms: _245  and  _248
REMARK   89  A    between atoms: _248  and  _249
REMARK   90  A    between atoms: _252  and  _254
REMARK   91  A    between atoms: _254  and  _255
REMARK   92  A    between atoms: _258  and  _260
REMARK   93  A    between atoms: _260  and  _261
REMARK   94  A    between atoms: _260  and  _263
REMARK   95  A    between atoms: _266  and  _268
REMARK   96  A    between atoms: _268  and  _269
REMARK   97  A    between atoms: _268  and  _271
REMARK   98  A    between atoms: _271  and  _272
REMARK   99  A    between atoms: _275  and  _277
REMARK  100  A    between atoms: _277  and  _278
REMARK  101  A    between atoms: _280  and  _282
REMARK  102  A    between atoms: _282  and  _283
REMARK  103  A    between atoms: _282  and  _285
REMARK  104  A    between atoms: _285  and  _286
REMARK  105  A    between atoms: _288  and  _290
REMARK  106  A    between atoms: _290  and  _291
REMARK  107  A    between atoms: _290  and  _293
REMARK  108  A    between atoms: _293  and  _294
REMARK  109  A    between atoms: _297  and  _299
REMARK  110  A    between atoms: _299  and  _300
REMARK  111  A    between atoms: _299  and  _302
REMARK  112  A    between atoms: _302  and  _303
REMARK  113  A    between atoms: _306  and  _308
REMARK  114  A    between atoms: _308  and  _309
REMARK  115  A    between atoms: _308  and  _311
REMARK  116  A    between atoms: _311  and  _312
REMARK  117  A    between atoms: _316  and  _317
REMARK  118  A    between atoms: _323  and  _324
REMARK  119  A    between atoms: _329  and  _331
REMARK  120  A    between atoms: _331  and  _332
REMARK  121  A    between atoms: _331  and  _334
REMARK  122  A    between atoms: _334  and  _335
REMARK  123  A    between atoms: _338  and  _340
REMARK  124  A    between atoms: _340  and  _341
REMARK  125  A    between atoms: _340  and  _343
REMARK  126  A    between atoms: _343  and  _344
REMARK  127  A    between atoms: _347  and  _349
REMARK  128  A    between atoms: _349  and  _350
REMARK  129  A    between atoms: _349  and  _352
REMARK  130  A    between atoms: _354  and  _356
REMARK  131  A    between atoms: _356  and  _357
REMARK  132  A    between atoms: _356  and  _359
REMARK  133  A    between atoms: _362  and  _364
REMARK  134  A    between atoms: _364  and  _365
REMARK  135  A    between atoms: _364  and  _367
REMARK  136  A    between atoms: _367  and  _368
REMARK  137  A    between atoms: _378  and  _380
REMARK  138  A    between atoms: _380  and  _381
REMARK  139  A    between atoms: _380  and  _383
REMARK  140  A    between atoms: _383  and  _384
REMARK  141  A    between atoms: _389  and  _391
REMARK  142  A    between atoms: _391  and  _392
REMARK  143  A    between atoms: _391  and  _394
REMARK  144  A    between atoms: _394  and  _395
REMARK  145  A    between atoms: _395  and  _396
REMARK  146  A    between atoms: _396  and  _397
REMARK                            x       y       z     vdW  Elec       q    Type
REMARK                         _______ _______ _______ _____ _____    ______ ____
ROOT
ATOM      1  NE  ARG A   1       2.141  -3.774  21.263  0.00  0.00    -0.265 N 
ATOM      2  CZ  ARG A   1       2.281  -2.760  22.100  0.00  0.00    +0.342 C 
ATOM      3  NH2 ARG A   1       3.463  -2.498  22.644  0.00  0.00    -0.292 N 
ATOM      4 HH21 ARG A   1       3.567  -1.699  23.302  0.00  0.00    +0.255 HD
ATOM      5 HH22 ARG A   1       4.285  -3.092  22.413  0.00  0.00    +0.255 HD
ATOM      6  NH1 ARG A   1       1.235  -2.022  22.403  0.00  0.00    -0.292 N 
ATOM      7 HH11 ARG A   1       1.336  -1.222  23.060  0.00  0.00    +0.255 HD
ATOM      8 HH12 ARG A   1       0.307  -2.238  21.985  0.00  0.00    +0.255 HD
ATOM      9  HE  ARG A   1       2.996  -4.323  21.043  0.00  0.00    +0.259 HD
ENDROOT
BRANCH   1  10
ATOM     10  CD  ARG A   1       0.896  -4.199  20.615  0.00  0.00    +0.174 C 
BRANCH  10  11
ATOM     11  CG  ARG A   1       1.034  -5.552  19.926  0.00  0.00    +0.045 C 
BRANCH  11  12
ATOM     12  CB  ARG A   1      -0.079  -5.800  18.931  0.00  0.00    +0.029 C 
BRANCH  12  13
ATOM     13  CA  ARG A   1      -0.194  -7.249  18.471  0.00  0.00    +0.133 C 
BRANCH  13  14
ATOM     14  N   ARG A   1      -1.173  -7.412  17.421  0.00  0.00    -0.239 NA
ATOM     15  H   ARG A   1      -2.043  -6.843  17.470  0.00  0.00    +0.142 HD
ENDBRANCH  13  14
BRANCH  13  16
ATOM     16  C   ARG A   1      -0.592  -8.166  19.611  0.00  0.00    +0.224 C 
ATOM     17  O   ARG A   1      -1.792  -8.271  19.901  0.00  0.00    -0.287 OA
ENDBRANCH  13  16
ENDBRANCH  12  13
ENDBRANCH  11  12
ENDBRANCH  10  11
ENDBRANCH   1  10
TORSDOF 6
REMARK  Name = ../refined-set-2016/3dc3/3dc3_pocket.pdb
REMARK  146 active torsions:
REMARK  status: ('A' for Active; 'I' for Inactive)
REMARK    1  A    between atoms: _1  and  _3
REMARK    2  A    between atoms: _3  and  _4
REMARK    3  A    between atoms: _3  and  _6
REMARK    4  A    between atoms: _6  and  _7
REMARK    5  A    between atoms: _17  and  _19
REMARK    6  A    between atoms: _19  and  _20
REMARK    7  A    between atoms: _19  and  _22
REMARK    8  A    between atoms: _22  and  _23
REMARK    9  A    between atoms: _28  and  _29
REMARK   10  A    between atoms: _31  and  _33
REMARK   11  A    between atoms: _33  and  _34
REMARK   12  A    between atoms: _33  and  _36
REMARK   13  A    between atoms: _36  and  _37
REMARK   14  A    between atoms: _40  and  _41
REMARK   15  A    between atoms: _46  and  _48
REMARK   16  A    between atoms: _48  and  _49
REMARK   17  A    between atoms: _48  and  _51
REMARK   18  A    between atoms: _51  and  _52
REMARK   19  A    between atoms: _57  and  _59
REMARK   20  A    between atoms: _59  and  _60
REMARK   21  A    between atoms: _59  and  _62
REMARK   22  A    between atoms: _62  and  _63
REMARK   23  A    between atoms: _65  and  _67
REMARK   24  A    between atoms: _67  and  _68
REMARK   25  A    between atoms: _67  and  _70
REMARK   26  A    between atoms: _70  and  _71
REMARK   27  A    between atoms: _71  and  _72
REMARK   28  A    between atoms: _77  and  _79
REMARK   29  A    between atoms: _79  and  _80
REMARK   30  A    between atoms: _79  and  _82
REMARK   31  A    between atoms: _82  and  _83
REMARK   32  A    between atoms: _86  and  _88
REMARK   33  A    between atoms: _88  and  _89
REMARK   34  A    between atoms: _88  and  _91
REMARK   35  A    between atoms: _91  and  _92
REMARK   36  A    between atoms: _92  and  _93
REMARK   37  A    between atoms: _98  and  _100
REMARK   38  A    between atoms: _100  and  _101
REMARK   39  A    between atoms: _100  and  _103
REMARK   40  A    between atoms: _103  and  _104
REMARK   41  A    between atoms: _110  and  _112
REMARK   42  A    between atoms: _123  and  _126
REMARK   43  A    between atoms: _126  and  _127
REMARK   44  A    between atoms: _135  and  _136
REMARK   45  A    between atoms: _144  and  _146
REMARK   46  A    between atoms: _146  and  _147
REMARK   47  A    between atoms: _146  and  _149
REMARK   48  A    between atoms: _149  and  _150
REMARK   49  A    between atoms: _150  and  _151
REMARK   50  A    between atoms: _154  and  _156
REMARK   51  A    between atoms: _156  and  _157
REMARK   52  A    between atoms: _156  and  _159
REMARK   53  A    between atoms: _159  and  _160
REMARK   54  A    between atoms: _165  and  _167
REMARK   55  A    between atoms: _167  and  _168
REMARK   56  A    between atoms: _167  and  _170
REMARK   57  A    between atoms: _170  and  _171
REMARK   58  A    between atoms: _171  and  _172
REMARK   59  A    between atoms: _175  and  _177
REMARK   60  A    between atoms: _177  and  _178
REMARK   61  A    between atoms: _177  and  _180
REMARK   62  A    between atoms: _180  and  _181
REMARK   63  A    between atoms: _184  and  _186
REMARK   64  A    between atoms: _186  and  _187
REMARK   65  A    between atoms: _186  and  _189
REMARK   66  A    between atoms: _189  and  _190
REMARK   67  A    between atoms: _191  and  ZN_406
REMARK   68  A    between atoms: _195  and  _197
REMARK   69  A    between atoms: _197  and  _198
REMARK   70  A    between atoms: _197  and  _200
REMARK   71  A    between atoms: _200  and  _201
REMARK   72  A    between atoms: _204  and  _206
REMARK   73  A    between atoms: _206  and  _207
REMARK   74  A    between atoms: _206  and  _209
REMARK   75  A    between atoms: _212  and  _214
REMARK   76  A    between atoms: _214  and  _215
REMARK   77  A    between atoms: _214  and  _217
REMARK   78  A    between atoms: _217  and  _218
REMARK   79  A    between atoms: _223  and  _225
REMARK   80  A    between atoms: _225  and  _226
REMARK   81  A    between atoms: _225  and  _228
REMARK   82  A    between atoms: _228  and  _229
REMARK   83  A    between atoms: _235  and  _237
REMARK   84  A    between atoms: _237  and  _238
REMARK   85  A    between atoms: _237  and  _240
REMARK   86  A    between atoms: _243  and  _245
REMARK   87  A    between atoms: _245  and  _246
REMARK   88  A    between atoms: _245  and  _248
REMARK   89  A    between atoms: _248  and  _249
REMARK   90  A    between atoms: _252  and  _254
REMARK   91  A    between atoms: _254  and  _255
REMARK   92  A    between atoms: _258  and  _260
REMARK   93  A    between atoms: _260  and  _261
REMARK   94  A    between atoms: _260  and  _263
REMARK   95  A    between atoms: _266  and  _268
REMARK   96  A    between atoms: _268  and  _269
REMARK   97  A    between atoms: _268  and  _271
REMARK   98  A    between atoms: _271  and  _272
REMARK   99  A    between atoms: _275  and  _277
REMARK  100  A    between atoms: _277  and  _278
REMARK  101  A    between atoms: _280  and  _282
REMARK  102  A    between atoms: _282  and  _283
REMARK  103  A    between atoms: _282  and  _285
REMARK  104  A    between atoms: _285  and  _286
REMARK  105  A    between atoms: _288  and  _290
REMARK  106  A    between atoms: _290  and  _291
REMARK  107  A    between atoms: _290  and  _293
REMARK  108  A    between atoms: _293  and  _294
REMARK  109  A    between atoms: _297  and  _299
REMARK  110  A    between atoms: _299  and  _300
REMARK  111  A    between atoms: _299  and  _302
REMARK  112  A    between atoms: _302  and  _303
REMARK  113  A    between atoms: _306  and  _308
REMARK  114  A    between atoms: _308  and  _309
REMARK  115  A    between atoms: _308  and  _311
REMARK  116  A    between atoms: _311  and  _312
REMARK  117  A    between atoms: _316  and  _317
REMARK  118  A    between atoms: _323  and  _324
REMARK  119  A    between atoms: _329  and  _331
REMARK  120  A    between atoms: _331  and  _332
REMARK  121  A    between atoms: _331  and  _334
REMARK  122  A    between atoms: _334  and  _335
REMARK  123  A    between atoms: _338  and  _340
REMARK  124  A    between atoms: _340  and  _341
REMARK  125  A    between atoms: _340  and  _343
REMARK  126  A    between atoms: _343  and  _344
REMARK  127  A    between atoms: _347  and  _349
REMARK  128  A    between atoms: _349  and  _350
REMARK  129  A    between atoms: _349  and  _352
REMARK  130  A    between atoms: _354  and  _356
REMARK  131  A    between atoms: _356  and  _357
REMARK  132  A    between atoms: _356  and  _359
REMARK  133  A    between atoms: _362  and  _364
REMARK  134  A    between atoms: _364  and  _365
REMARK  135  A    between atoms: _364  and  _367
REMARK  136  A    between atoms: _367  and  _368
REMARK  137  A    between atoms: _378  and  _380
REMARK  138  A    between atoms: _380  and  _381
REMARK  139  A    between atoms: _380  and  _383
REMARK  140  A    between atoms: _383  and  _384
REMARK  141  A    between atoms: _389  and  _391
REMARK  142  A    between atoms: _391  and  _392
REMARK  143  A    between atoms: _391  and  _394
REMARK  144  A    between atoms: _394  and  _395
REMARK  145  A    between atoms: _395  and  _396
REMARK  146  A    between atoms: _396  and  _397
REMARK                            x       y       z     vdW  Elec       q    Type
REMARK                         _______ _______ _______ _____ _____    ______ ____
ROOT
ATOM      1  O   HOH     1      -1.424  -4.068  15.893  0.00  0.00    +0.000 OA
ENDROOT
TORSDOF 0
REMARK  Name = ../refined-set-2016/3dc3/3dc3_pocket.pdb
REMARK  146 active torsions:
REMARK  status: ('A' for Active; 'I' for Inactive)
REMARK    1  A    between atoms: _1  and  _3
REMARK    2  A    between atoms: _3  and  _4
REMARK    3  A    between atoms: _3  and  _6
REMARK    4  A    between atoms: _6  and  _7
REMARK    5  A    between atoms: _17  and  _19
REMARK    6  A    between atoms: _19  and  _20
REMARK    7  A    between atoms: _19  and  _22
REMARK    8  A    between atoms: _22  and  _23
REMARK    9  A    between atoms: _28  and  _29
REMARK   10  A    between atoms: _31  and  _33
REMARK   11  A    between atoms: _33  and  _34
REMARK   12  A    between atoms: _33  and  _36
REMARK   13  A    between atoms: _36  and  _37
REMARK   14  A    between atoms: _40  and  _41
REMARK   15  A    between atoms: _46  and  _48
REMARK   16  A    between atoms: _48  and  _49
REMARK   17  A    between atoms: _48  and  _51
REMARK   18  A    between atoms: _51  and  _52
REMARK   19  A    between atoms: _57  and  _59
REMARK   20  A    between atoms: _59  and  _60
REMARK   21  A    between atoms: _59  and  _62
REMARK   22  A    between atoms: _62  and  _63
REMARK   23  A    between atoms: _65  and  _67
REMARK   24  A    between atoms: _67  and  _68
REMARK   25  A    between atoms: _67  and  _70
REMARK   26  A    between atoms: _70  and  _71
REMARK   27  A    between atoms: _71  and  _72
REMARK   28  A    between atoms: _77  and  _79
REMARK   29  A    between atoms: _79  and  _80
REMARK   30  A    between atoms: _79  and  _82
REMARK   31  A    between atoms: _82  and  _83
REMARK   32  A    between atoms: _86  and  _88
REMARK   33  A    between atoms: _88  and  _89
REMARK   34  A    between atoms: _88  and  _91
REMARK   35  A    between atoms: _91  and  _92
REMARK   36  A    between atoms: _92  and  _93
REMARK   37  A    between atoms: _98  and  _100
REMARK   38  A    between atoms: _100  and  _101
REMARK   39  A    between atoms: _100  and  _103
REMARK   40  A    between atoms: _103  and  _104
REMARK   41  A    between atoms: _110  and  _112
REMARK   42  A    between atoms: _123  and  _126
REMARK   43  A    between atoms: _126  and  _127
REMARK   44  A    between atoms: _135  and  _136
REMARK   45  A    between atoms: _144  and  _146
REMARK   46  A    between atoms: _146  and  _147
REMARK   47  A    between atoms: _146  and  _149
REMARK   48  A    between atoms: _149  and  _150
REMARK   49  A    between atoms: _150  and  _151
REMARK   50  A    between atoms: _154  and  _156
REMARK   51  A    between atoms: _156  and  _157
REMARK   52  A    between atoms: _156  and  _159
REMARK   53  A    between atoms: _159  and  _160
REMARK   54  A    between atoms: _165  and  _167
REMARK   55  A    between atoms: _167  and  _168
REMARK   56  A    between atoms: _167  and  _170
REMARK   57  A    between atoms: _170  and  _171
REMARK   58  A    between atoms: _171  and  _172
REMARK   59  A    between atoms: _175  and  _177
REMARK   60  A    between atoms: _177  and  _178
REMARK   61  A    between atoms: _177  and  _180
REMARK   62  A    between atoms: _180  and  _181
REMARK   63  A    between atoms: _184  and  _186
REMARK   64  A    between atoms: _186  and  _187
REMARK   65  A    between atoms: _186  and  _189
REMARK   66  A    between atoms: _189  and  _190
REMARK   67  A    between atoms: _191  and  ZN_406
REMARK   68  A    between atoms: _195  and  _197
REMARK   69  A    between atoms: _197  and  _198
REMARK   70  A    between atoms: _197  and  _200
REMARK   71  A    between atoms: _200  and  _201
REMARK   72  A    between atoms: _204  and  _206
REMARK   73  A    between atoms: _206  and  _207
REMARK   74  A    between atoms: _206  and  _209
REMARK   75  A    between atoms: _212  and  _214
REMARK   76  A    between atoms: _214  and  _215
REMARK   77  A    between atoms: _214  and  _217
REMARK   78  A    between atoms: _217  and  _218
REMARK   79  A    between atoms: _223  and  _225
REMARK   80  A    between atoms: _225  and  _226
REMARK   81  A    between atoms: _225  and  _228
REMARK   82  A    between atoms: _228  and  _229
REMARK   83  A    between atoms: _235  and  _237
REMARK   84  A    between atoms: _237  and  _238
REMARK   85  A    between atoms: _237  and  _240
REMARK   86  A    between atoms: _243  and  _245
REMARK   87  A    between atoms: _245  and  _246
REMARK   88  A    between atoms: _245  and  _248
REMARK   89  A    between atoms: _248  and  _249
REMARK   90  A    between atoms: _252  and  _254
REMARK   91  A    between atoms: _254  and  _255
REMARK   92  A    between atoms: _258  and  _260
REMARK   93  A    between atoms: _260  and  _261
REMARK   94  A    between atoms: _260  and  _263
REMARK   95  A    between atoms: _266  and  _268
REMARK   96  A    between atoms: _268  and  _269
REMARK   97  A    between atoms: _268  and  _271
REMARK   98  A    between atoms: _271  and  _272
REMARK   99  A    between atoms: _275  and  _277
REMARK  100  A    between atoms: _277  and  _278
REMARK  101  A    between atoms: _280  and  _282
REMARK  102  A    between atoms: _282  and  _283
REMARK  103  A    between atoms: _282  and  _285
REMARK  104  A    between atoms: _285  and  _286
REMARK  105  A    between atoms: _288  and  _290
REMARK  106  A    between atoms: _290  and  _291
REMARK  107  A    between atoms: _290  and  _293
REMARK  108  A    between atoms: _293  and  _294
REMARK  109  A    between atoms: _297  and  _299
REMARK  110  A    between atoms: _299  and  _300
REMARK  111  A    between atoms: _299  and  _302
REMARK  112  A    between atoms: _302  and  _303
REMARK  113  A    between atoms: _306  and  _308
REMARK  114  A    between atoms: _308  and  _309
REMARK  115  A    between atoms: _308  and  _311
REMARK  116  A    between atoms: _311  and  _312
REMARK  117  A    between atoms: _316  and  _317
REMARK  118  A    between atoms: _323  and  _324
REMARK  119  A    between atoms: _329  and  _331
REMARK  120  A    between atoms: _331  and  _332
REMARK  121  A    between atoms: _331  and  _334
REMARK  122  A    between atoms: _334  and  _335
REMARK  123  A    between atoms: _338  and  _340
REMARK  124  A    between atoms: _340  and  _341
REMARK  125  A    between atoms: _340  and  _343
REMARK  126  A    between atoms: _343  and  _344
REMARK  127  A    between atoms: _347  and  _349
REMARK  128  A    between atoms: _349  and  _350
REMARK  129  A    between atoms: _349  and  _352
REMARK  130  A    between atoms: _354  and  _356
REMARK  131  A    between atoms: _356  and  _357
REMARK  132  A    between atoms: _356  and  _359
REMARK  133  A    between atoms: _362  and  _364
REMARK  134  A    between atoms: _364  and  _365
REMARK  135  A    between atoms: _364  and  _367
REMARK  136  A    between atoms: _367  and  _368
REMARK  137  A    between atoms: _378  and  _380
REMARK  138  A    between atoms: _380  and  _381
REMARK  139  A    between atoms: _380  and  _383
REMARK  140  A    between atoms: _383  and  _384
REMARK  141  A    between atoms: _389  and  _391
REMARK  142  A    between atoms: _391  and  _392
REMARK  143  A    between atoms: _391  and  _394
REMARK  144  A    between atoms: _394  and  _395
REMARK  145  A    between atoms: _395  and  _396
REMARK  146  A    between atoms: _396  and  _397
REMARK                            x       y       z     vdW  Elec       q    Type
REMARK                         _______ _______ _______ _____ _____    ______ ____
ROOT
ATOM      1  O   HOH     1      -2.599  -3.401  11.618  0.00  0.00    +0.000 OA
ENDROOT
TORSDOF 0
REMARK  Name = ../refined-set-2016/3dc3/3dc3_pocket.pdb
REMARK  146 active torsions:
REMARK  status: ('A' for Active; 'I' for Inactive)
REMARK    1  A    between atoms: _1  and  _3
REMARK    2  A    between atoms: _3  and  _4
REMARK    3  A    between atoms: _3  and  _6
REMARK    4  A    between atoms: _6  and  _7
REMARK    5  A    between atoms: _17  and  _19
REMARK    6  A    between atoms: _19  and  _20
REMARK    7  A    between atoms: _19  and  _22
REMARK    8  A    between atoms: _22  and  _23
REMARK    9  A    between atoms: _28  and  _29
REMARK   10  A    between atoms: _31  and  _33
REMARK   11  A    between atoms: _33  and  _34
REMARK   12  A    between atoms: _33  and  _36
REMARK   13  A    between atoms: _36  and  _37
REMARK   14  A    between atoms: _40  and  _41
REMARK   15  A    between atoms: _46  and  _48
REMARK   16  A    between atoms: _48  and  _49
REMARK   17  A    between atoms: _48  and  _51
REMARK   18  A    between atoms: _51  and  _52
REMARK   19  A    between atoms: _57  and  _59
REMARK   20  A    between atoms: _59  and  _60
REMARK   21  A    between atoms: _59  and  _62
REMARK   22  A    between atoms: _62  and  _63
REMARK   23  A    between atoms: _65  and  _67
REMARK   24  A    between atoms: _67  and  _68
REMARK   25  A    between atoms: _67  and  _70
REMARK   26  A    between atoms: _70  and  _71
REMARK   27  A    between atoms: _71  and  _72
REMARK   28  A    between atoms: _77  and  _79
REMARK   29  A    between atoms: _79  and  _80
REMARK   30  A    between atoms: _79  and  _82
REMARK   31  A    between atoms: _82  and  _83
REMARK   32  A    between atoms: _86  and  _88
REMARK   33  A    between atoms: _88  and  _89
REMARK   34  A    between atoms: _88  and  _91
REMARK   35  A    between atoms: _91  and  _92
REMARK   36  A    between atoms: _92  and  _93
REMARK   37  A    between atoms: _98  and  _100
REMARK   38  A    between atoms: _100  and  _101
REMARK   39  A    between atoms: _100  and  _103
REMARK   40  A    between atoms: _103  and  _104
REMARK   41  A    between atoms: _110  and  _112
REMARK   42  A    between atoms: _123  and  _126
REMARK   43  A    between atoms: _126  and  _127
REMARK   44  A    between atoms: _135  and  _136
REMARK   45  A    between atoms: _144  and  _146
REMARK   46  A    between atoms: _146  and  _147
REMARK   47  A    between atoms: _146  and  _149
REMARK   48  A    between atoms: _149  and  _150
REMARK   49  A    between atoms: _150  and  _151
REMARK   50  A    between atoms: _154  and  _156
REMARK   51  A    between atoms: _156  and  _157
REMARK   52  A    between atoms: _156  and  _159
REMARK   53  A    between atoms: _159  and  _160
REMARK   54  A    between atoms: _165  and  _167
REMARK   55  A    between atoms: _167  and  _168
REMARK   56  A    between atoms: _167  and  _170
REMARK   57  A    between atoms: _170  and  _171
REMARK   58  A    between atoms: _171  and  _172
REMARK   59  A    between atoms: _175  and  _177
REMARK   60  A    between atoms: _177  and  _178
REMARK   61  A    between atoms: _177  and  _180
REMARK   62  A    between atoms: _180  and  _181
REMARK   63  A    between atoms: _184  and  _186
REMARK   64  A    between atoms: _186  and  _187
REMARK   65  A    between atoms: _186  and  _189
REMARK   66  A    between atoms: _189  and  _190
REMARK   67  A    between atoms: _191  and  ZN_406
REMARK   68  A    between atoms: _195  and  _197
REMARK   69  A    between atoms: _197  and  _198
REMARK   70  A    between atoms: _197  and  _200
REMARK   71  A    between atoms: _200  and  _201
REMARK   72  A    between atoms: _204  and  _206
REMARK   73  A    between atoms: _206  and  _207
REMARK   74  A    between atoms: _206  and  _209
REMARK   75  A    between atoms: _212  and  _214
REMARK   76  A    between atoms: _214  and  _215
REMARK   77  A    between atoms: _214  and  _217
REMARK   78  A    between atoms: _217  and  _218
REMARK   79  A    between atoms: _223  and  _225
REMARK   80  A    between atoms: _225  and  _226
REMARK   81  A    between atoms: _225  and  _228
REMARK   82  A    between atoms: _228  and  _229
REMARK   83  A    between atoms: _235  and  _237
REMARK   84  A    between atoms: _237  and  _238
REMARK   85  A    between atoms: _237  and  _240
REMARK   86  A    between atoms: _243  and  _245
REMARK   87  A    between atoms: _245  and  _246
REMARK   88  A    between atoms: _245  and  _248
REMARK   89  A    between atoms: _248  and  _249
REMARK   90  A    between atoms: _252  and  _254
REMARK   91  A    between atoms: _254  and  _255
REMARK   92  A    between atoms: _258  and  _260
REMARK   93  A    between atoms: _260  and  _261
REMARK   94  A    between atoms: _260  and  _263
REMARK   95  A    between atoms: _266  and  _268
REMARK   96  A    between atoms: _268  and  _269
REMARK   97  A    between atoms: _268  and  _271
REMARK   98  A    between atoms: _271  and  _272
REMARK   99  A    between atoms: _275  and  _277
REMARK  100  A    between atoms: _277  and  _278
REMARK  101  A    between atoms: _280  and  _282
REMARK  102  A    between atoms: _282  and  _283
REMARK  103  A    between atoms: _282  and  _285
REMARK  104  A    between atoms: _285  and  _286
REMARK  105  A    between atoms: _288  and  _290
REMARK  106  A    between atoms: _290  and  _291
REMARK  107  A    between atoms: _290  and  _293
REMARK  108  A    between atoms: _293  and  _294
REMARK  109  A    between atoms: _297  and  _299
REMARK  110  A    between atoms: _299  and  _300
REMARK  111  A    between atoms: _299  and  _302
REMARK  112  A    between atoms: _302  and  _303
REMARK  113  A    between atoms: _306  and  _308
REMARK  114  A    between atoms: _308  and  _309
REMARK  115  A    between atoms: _308  and  _311
REMARK  116  A    between atoms: _311  and  _312
REMARK  117  A    between atoms: _316  and  _317
REMARK  118  A    between atoms: _323  and  _324
REMARK  119  A    between atoms: _329  and  _331
REMARK  120  A    between atoms: _331  and  _332
REMARK  121  A    between atoms: _331  and  _334
REMARK  122  A    between atoms: _334  and  _335
REMARK  123  A    between atoms: _338  and  _340
REMARK  124  A    between atoms: _340  and  _341
REMARK  125  A    between atoms: _340  and  _343
REMARK  126  A    between atoms: _343  and  _344
REMARK  127  A    between atoms: _347  and  _349
REMARK  128  A    between atoms: _349  and  _350
REMARK  129  A    between atoms: _349  and  _352
REMARK  130  A    between atoms: _354  and  _356
REMARK  131  A    between atoms: _356  and  _357
REMARK  132  A    between atoms: _356  and  _359
REMARK  133  A    between atoms: _362  and  _364
REMARK  134  A    between atoms: _364  and  _365
REMARK  135  A    between atoms: _364  and  _367
REMARK  136  A    between atoms: _367  and  _368
REMARK  137  A    between atoms: _378  and  _380
REMARK  138  A    between atoms: _380  and  _381
REMARK  139  A    between atoms: _380  and  _383
REMARK  140  A    between atoms: _383  and  _384
REMARK  141  A    between atoms: _389  and  _391
REMARK  142  A    between atoms: _391  and  _392
REMARK  143  A    between atoms: _391  and  _394
REMARK  144  A    between atoms: _394  and  _395
REMARK  145  A    between atoms: _395  and  _396
REMARK  146  A    between atoms: _396  and  _397
REMARK                            x       y       z     vdW  Elec       q    Type
REMARK                         _______ _______ _______ _____ _____    ______ ____
ROOT
ATOM      1  O   HOH     1      -0.840   3.914  14.074  0.00  0.00    +0.000 OA
ENDROOT
TORSDOF 0
REMARK  Name = ../refined-set-2016/3dc3/3dc3_pocket.pdb
REMARK  146 active torsions:
REMARK  status: ('A' for Active; 'I' for Inactive)
REMARK    1  A    between atoms: _1  and  _3
REMARK    2  A    between atoms: _3  and  _4
REMARK    3  A    between atoms: _3  and  _6
REMARK    4  A    between atoms: _6  and  _7
REMARK    5  A    between atoms: _17  and  _19
REMARK    6  A    between atoms: _19  and  _20
REMARK    7  A    between atoms: _19  and  _22
REMARK    8  A    between atoms: _22  and  _23
REMARK    9  A    between atoms: _28  and  _29
REMARK   10  A    between atoms: _31  and  _33
REMARK   11  A    between atoms: _33  and  _34
REMARK   12  A    between atoms: _33  and  _36
REMARK   13  A    between atoms: _36  and  _37
REMARK   14  A    between atoms: _40  and  _41
REMARK   15  A    between atoms: _46  and  _48
REMARK   16  A    between atoms: _48  and  _49
REMARK   17  A    between atoms: _48  and  _51
REMARK   18  A    between atoms: _51  and  _52
REMARK   19  A    between atoms: _57  and  _59
REMARK   20  A    between atoms: _59  and  _60
REMARK   21  A    between atoms: _59  and  _62
REMARK   22  A    between atoms: _62  and  _63
REMARK   23  A    between atoms: _65  and  _67
REMARK   24  A    between atoms: _67  and  _68
REMARK   25  A    between atoms: _67  and  _70
REMARK   26  A    between atoms: _70  and  _71
REMARK   27  A    between atoms: _71  and  _72
REMARK   28  A    between atoms: _77  and  _79
REMARK   29  A    between atoms: _79  and  _80
REMARK   30  A    between atoms: _79  and  _82
REMARK   31  A    between atoms: _82  and  _83
REMARK   32  A    between atoms: _86  and  _88
REMARK   33  A    between atoms: _88  and  _89
REMARK   34  A    between atoms: _88  and  _91
REMARK   35  A    between atoms: _91  and  _92
REMARK   36  A    between atoms: _92  and  _93
REMARK   37  A    between atoms: _98  and  _100
REMARK   38  A    between atoms: _100  and  _101
REMARK   39  A    between atoms: _100  and  _103
REMARK   40  A    between atoms: _103  and  _104
REMARK   41  A    between atoms: _110  and  _112
REMARK   42  A    between atoms: _123  and  _126
REMARK   43  A    between atoms: _126  and  _127
REMARK   44  A    between atoms: _135  and  _136
REMARK   45  A    between atoms: _144  and  _146
REMARK   46  A    between atoms: _146  and  _147
REMARK   47  A    between atoms: _146  and  _149
REMARK   48  A    between atoms: _149  and  _150
REMARK   49  A    between atoms: _150  and  _151
REMARK   50  A    between atoms: _154  and  _156
REMARK   51  A    between atoms: _156  and  _157
REMARK   52  A    between atoms: _156  and  _159
REMARK   53  A    between atoms: _159  and  _160
REMARK   54  A    between atoms: _165  and  _167
REMARK   55  A    between atoms: _167  and  _168
REMARK   56  A    between atoms: _167  and  _170
REMARK   57  A    between atoms: _170  and  _171
REMARK   58  A    between atoms: _171  and  _172
REMARK   59  A    between atoms: _175  and  _177
REMARK   60  A    between atoms: _177  and  _178
REMARK   61  A    between atoms: _177  and  _180
REMARK   62  A    between atoms: _180  and  _181
REMARK   63  A    between atoms: _184  and  _186
REMARK   64  A    between atoms: _186  and  _187
REMARK   65  A    between atoms: _186  and  _189
REMARK   66  A    between atoms: _189  and  _190
REMARK   67  A    between atoms: _191  and  ZN_406
REMARK   68  A    between atoms: _195  and  _197
REMARK   69  A    between atoms: _197  and  _198
REMARK   70  A    between atoms: _197  and  _200
REMARK   71  A    between atoms: _200  and  _201
REMARK   72  A    between atoms: _204  and  _206
REMARK   73  A    between atoms: _206  and  _207
REMARK   74  A    between atoms: _206  and  _209
REMARK   75  A    between atoms: _212  and  _214
REMARK   76  A    between atoms: _214  and  _215
REMARK   77  A    between atoms: _214  and  _217
REMARK   78  A    between atoms: _217  and  _218
REMARK   79  A    between atoms: _223  and  _225
REMARK   80  A    between atoms: _225  and  _226
REMARK   81  A    between atoms: _225  and  _228
REMARK   82  A    between atoms: _228  and  _229
REMARK   83  A    between atoms: _235  and  _237
REMARK   84  A    between atoms: _237  and  _238
REMARK   85  A    between atoms: _237  and  _240
REMARK   86  A    between atoms: _243  and  _245
REMARK   87  A    between atoms: _245  and  _246
REMARK   88  A    between atoms: _245  and  _248
REMARK   89  A    between atoms: _248  and  _249
REMARK   90  A    between atoms: _252  and  _254
REMARK   91  A    between atoms: _254  and  _255
REMARK   92  A    between atoms: _258  and  _260
REMARK   93  A    between atoms: _260  and  _261
REMARK   94  A    between atoms: _260  and  _263
REMARK   95  A    between atoms: _266  and  _268
REMARK   96  A    between atoms: _268  and  _269
REMARK   97  A    between atoms: _268  and  _271
REMARK   98  A    between atoms: _271  and  _272
REMARK   99  A    between atoms: _275  and  _277
REMARK  100  A    between atoms: _277  and  _278
REMARK  101  A    between atoms: _280  and  _282
REMARK  102  A    between atoms: _282  and  _283
REMARK  103  A    between atoms: _282  and  _285
REMARK  104  A    between atoms: _285  and  _286
REMARK  105  A    between atoms: _288  and  _290
REMARK  106  A    between atoms: _290  and  _291
REMARK  107  A    between atoms: _290  and  _293
REMARK  108  A    between atoms: _293  and  _294
REMARK  109  A    between atoms: _297  and  _299
REMARK  110  A    between atoms: _299  and  _300
REMARK  111  A    between atoms: _299  and  _302
REMARK  112  A    between atoms: _302  and  _303
REMARK  113  A    between atoms: _306  and  _308
REMARK  114  A    between atoms: _308  and  _309
REMARK  115  A    between atoms: _308  and  _311
REMARK  116  A    between atoms: _311  and  _312
REMARK  117  A    between atoms: _316  and  _317
REMARK  118  A    between atoms: _323  and  _324
REMARK  119  A    between atoms: _329  and  _331
REMARK  120  A    between atoms: _331  and  _332
REMARK  121  A    between atoms: _331  and  _334
REMARK  122  A    between atoms: _334  and  _335
REMARK  123  A    between atoms: _338  and  _340
REMARK  124  A    between atoms: _340  and  _341
REMARK  125  A    between atoms: _340  and  _343
REMARK  126  A    between atoms: _343  and  _344
REMARK  127  A    between atoms: _347  and  _349
REMARK  128  A    between atoms: _349  and  _350
REMARK  129  A    between atoms: _349  and  _352
REMARK  130  A    between atoms: _354  and  _356
REMARK  131  A    between atoms: _356  and  _357
REMARK  132  A    between atoms: _356  and  _359
REMARK  133  A    between atoms: _362  and  _364
REMARK  134  A    between atoms: _364  and  _365
REMARK  135  A    between atoms: _364  and  _367
REMARK  136  A    between atoms: _367  and  _368
REMARK  137  A    between atoms: _378  and  _380
REMARK  138  A    between atoms: _380  and  _381
REMARK  139  A    between atoms: _380  and  _383
REMARK  140  A    between atoms: _383  and  _384
REMARK  141  A    between atoms: _389  and  _391
REMARK  142  A    between atoms: _391  and  _392
REMARK  143  A    between atoms: _391  and  _394
REMARK  144  A    between atoms: _394  and  _395
REMARK  145  A    between atoms: _395  and  _396
REMARK  146  A    between atoms: _396  and  _397
REMARK                            x       y       z     vdW  Elec       q    Type
REMARK                         _______ _______ _______ _____ _____    ______ ____
ROOT
ATOM      1  O   HOH     1      -6.260   8.436   5.259  0.00  0.00    +0.000 OA
ENDROOT
TORSDOF 0
REMARK  Name = ../refined-set-2016/3dc3/3dc3_pocket.pdb
REMARK  146 active torsions:
REMARK  status: ('A' for Active; 'I' for Inactive)
REMARK    1  A    between atoms: _1  and  _3
REMARK    2  A    between atoms: _3  and  _4
REMARK    3  A    between atoms: _3  and  _6
REMARK    4  A    between atoms: _6  and  _7
REMARK    5  A    between atoms: _17  and  _19
REMARK    6  A    between atoms: _19  and  _20
REMARK    7  A    between atoms: _19  and  _22
REMARK    8  A    between atoms: _22  and  _23
REMARK    9  A    between atoms: _28  and  _29
REMARK   10  A    between atoms: _31  and  _33
REMARK   11  A    between atoms: _33  and  _34
REMARK   12  A    between atoms: _33  and  _36
REMARK   13  A    between atoms: _36  and  _37
REMARK   14  A    between atoms: _40  and  _41
REMARK   15  A    between atoms: _46  and  _48
REMARK   16  A    between atoms: _48  and  _49
REMARK   17  A    between atoms: _48  and  _51
REMARK   18  A    between atoms: _51  and  _52
REMARK   19  A    between atoms: _57  and  _59
REMARK   20  A    between atoms: _59  and  _60
REMARK   21  A    between atoms: _59  and  _62
REMARK   22  A    between atoms: _62  and  _63
REMARK   23  A    between atoms: _65  and  _67
REMARK   24  A    between atoms: _67  and  _68
REMARK   25  A    between atoms: _67  and  _70
REMARK   26  A    between atoms: _70  and  _71
REMARK   27  A    between atoms: _71  and  _72
REMARK   28  A    between atoms: _77  and  _79
REMARK   29  A    between atoms: _79  and  _80
REMARK   30  A    between atoms: _79  and  _82
REMARK   31  A    between atoms: _82  and  _83
REMARK   32  A    between atoms: _86  and  _88
REMARK   33  A    between atoms: _88  and  _89
REMARK   34  A    between atoms: _88  and  _91
REMARK   35  A    between atoms: _91  and  _92
REMARK   36  A    between atoms: _92  and  _93
REMARK   37  A    between atoms: _98  and  _100
REMARK   38  A    between atoms: _100  and  _101
REMARK   39  A    between atoms: _100  and  _103
REMARK   40  A    between atoms: _103  and  _104
REMARK   41  A    between atoms: _110  and  _112
REMARK   42  A    between atoms: _123  and  _126
REMARK   43  A    between atoms: _126  and  _127
REMARK   44  A    between atoms: _135  and  _136
REMARK   45  A    between atoms: _144  and  _146
REMARK   46  A    between atoms: _146  and  _147
REMARK   47  A    between atoms: _146  and  _149
REMARK   48  A    between atoms: _149  and  _150
REMARK   49  A    between atoms: _150  and  _151
REMARK   50  A    between atoms: _154  and  _156
REMARK   51  A    between atoms: _156  and  _157
REMARK   52  A    between atoms: _156  and  _159
REMARK   53  A    between atoms: _159  and  _160
REMARK   54  A    between atoms: _165  and  _167
REMARK   55  A    between atoms: _167  and  _168
REMARK   56  A    between atoms: _167  and  _170
REMARK   57  A    between atoms: _170  and  _171
REMARK   58  A    between atoms: _171  and  _172
REMARK   59  A    between atoms: _175  and  _177
REMARK   60  A    between atoms: _177  and  _178
REMARK   61  A    between atoms: _177  and  _180
REMARK   62  A    between atoms: _180  and  _181
REMARK   63  A    between atoms: _184  and  _186
REMARK   64  A    between atoms: _186  and  _187
REMARK   65  A    between atoms: _186  and  _189
REMARK   66  A    between atoms: _189  and  _190
REMARK   67  A    between atoms: _191  and  ZN_406
REMARK   68  A    between atoms: _195  and  _197
REMARK   69  A    between atoms: _197  and  _198
REMARK   70  A    between atoms: _197  and  _200
REMARK   71  A    between atoms: _200  and  _201
REMARK   72  A    between atoms: _204  and  _206
REMARK   73  A    between atoms: _206  and  _207
REMARK   74  A    between atoms: _206  and  _209
REMARK   75  A    between atoms: _212  and  _214
REMARK   76  A    between atoms: _214  and  _215
REMARK   77  A    between atoms: _214  and  _217
REMARK   78  A    between atoms: _217  and  _218
REMARK   79  A    between atoms: _223  and  _225
REMARK   80  A    between atoms: _225  and  _226
REMARK   81  A    between atoms: _225  and  _228
REMARK   82  A    between atoms: _228  and  _229
REMARK   83  A    between atoms: _235  and  _237
REMARK   84  A    between atoms: _237  and  _238
REMARK   85  A    between atoms: _237  and  _240
REMARK   86  A    between atoms: _243  and  _245
REMARK   87  A    between atoms: _245  and  _246
REMARK   88  A    between atoms: _245  and  _248
REMARK   89  A    between atoms: _248  and  _249
REMARK   90  A    between atoms: _252  and  _254
REMARK   91  A    between atoms: _254  and  _255
REMARK   92  A    between atoms: _258  and  _260
REMARK   93  A    between atoms: _260  and  _261
REMARK   94  A    between atoms: _260  and  _263
REMARK   95  A    between atoms: _266  and  _268
REMARK   96  A    between atoms: _268  and  _269
REMARK   97  A    between atoms: _268  and  _271
REMARK   98  A    between atoms: _271  and  _272
REMARK   99  A    between atoms: _275  and  _277
REMARK  100  A    between atoms: _277  and  _278
REMARK  101  A    between atoms: _280  and  _282
REMARK  102  A    between atoms: _282  and  _283
REMARK  103  A    between atoms: _282  and  _285
REMARK  104  A    between atoms: _285  and  _286
REMARK  105  A    between atoms: _288  and  _290
REMARK  106  A    between atoms: _290  and  _291
REMARK  107  A    between atoms: _290  and  _293
REMARK  108  A    between atoms: _293  and  _294
REMARK  109  A    between atoms: _297  and  _299
REMARK  110  A    between atoms: _299  and  _300
REMARK  111  A    between atoms: _299  and  _302
REMARK  112  A    between atoms: _302  and  _303
REMARK  113  A    between atoms: _306  and  _308
REMARK  114  A    between atoms: _308  and  _309
REMARK  115  A    between atoms: _308  and  _311
REMARK  116  A    between atoms: _311  and  _312
REMARK  117  A    between atoms: _316  and  _317
REMARK  118  A    between atoms: _323  and  _324
REMARK  119  A    between atoms: _329  and  _331
REMARK  120  A    between atoms: _331  and  _332
REMARK  121  A    between atoms: _331  and  _334
REMARK  122  A    between atoms: _334  and  _335
REMARK  123  A    between atoms: _338  and  _340
REMARK  124  A    between atoms: _340  and  _341
REMARK  125  A    between atoms: _340  and  _343
REMARK  126  A    between atoms: _343  and  _344
REMARK  127  A    between atoms: _347  and  _349
REMARK  128  A    between atoms: _349  and  _350
REMARK  129  A    between atoms: _349  and  _352
REMARK  130  A    between atoms: _354  and  _356
REMARK  131  A    between atoms: _356  and  _357
REMARK  132  A    between atoms: _356  and  _359
REMARK  133  A    between atoms: _362  and  _364
REMARK  134  A    between atoms: _364  and  _365
REMARK  135  A    between atoms: _364  and  _367
REMARK  136  A    between atoms: _367  and  _368
REMARK  137  A    between atoms: _378  and  _380
REMARK  138  A    between atoms: _380  and  _381
REMARK  139  A    between atoms: _380  and  _383
REMARK  140  A    between atoms: _383  and  _384
REMARK  141  A    between atoms: _389  and  _391
REMARK  142  A    between atoms: _391  and  _392
REMARK  143  A    between atoms: _391  and  _394
REMARK  144  A    between atoms: _394  and  _395
REMARK  145  A    between atoms: _395  and  _396
REMARK  146  A    between atoms: _396  and  _397
REMARK                            x       y       z     vdW  Elec       q    Type
REMARK                         _______ _______ _______ _____ _____    ______ ____
ROOT
ATOM      1  O   HOH     1      -5.230   1.430  10.950  0.00  0.00    +0.000 OA
ENDROOT
TORSDOF 0
REMARK  Name = ../refined-set-2016/3dc3/3dc3_pocket.pdb
REMARK  146 active torsions:
REMARK  status: ('A' for Active; 'I' for Inactive)
REMARK    1  A    between atoms: _1  and  _3
REMARK    2  A    between atoms: _3  and  _4
REMARK    3  A    between atoms: _3  and  _6
REMARK    4  A    between atoms: _6  and  _7
REMARK    5  A    between atoms: _17  and  _19
REMARK    6  A    between atoms: _19  and  _20
REMARK    7  A    between atoms: _19  and  _22
REMARK    8  A    between atoms: _22  and  _23
REMARK    9  A    between atoms: _28  and  _29
REMARK   10  A    between atoms: _31  and  _33
REMARK   11  A    between atoms: _33  and  _34
REMARK   12  A    between atoms: _33  and  _36
REMARK   13  A    between atoms: _36  and  _37
REMARK   14  A    between atoms: _40  and  _41
REMARK   15  A    between atoms: _46  and  _48
REMARK   16  A    between atoms: _48  and  _49
REMARK   17  A    between atoms: _48  and  _51
REMARK   18  A    between atoms: _51  and  _52
REMARK   19  A    between atoms: _57  and  _59
REMARK   20  A    between atoms: _59  and  _60
REMARK   21  A    between atoms: _59  and  _62
REMARK   22  A    between atoms: _62  and  _63
REMARK   23  A    between atoms: _65  and  _67
REMARK   24  A    between atoms: _67  and  _68
REMARK   25  A    between atoms: _67  and  _70
REMARK   26  A    between atoms: _70  and  _71
REMARK   27  A    between atoms: _71  and  _72
REMARK   28  A    between atoms: _77  and  _79
REMARK   29  A    between atoms: _79  and  _80
REMARK   30  A    between atoms: _79  and  _82
REMARK   31  A    between atoms: _82  and  _83
REMARK   32  A    between atoms: _86  and  _88
REMARK   33  A    between atoms: _88  and  _89
REMARK   34  A    between atoms: _88  and  _91
REMARK   35  A    between atoms: _91  and  _92
REMARK   36  A    between atoms: _92  and  _93
REMARK   37  A    between atoms: _98  and  _100
REMARK   38  A    between atoms: _100  and  _101
REMARK   39  A    between atoms: _100  and  _103
REMARK   40  A    between atoms: _103  and  _104
REMARK   41  A    between atoms: _110  and  _112
REMARK   42  A    between atoms: _123  and  _126
REMARK   43  A    between atoms: _126  and  _127
REMARK   44  A    between atoms: _135  and  _136
REMARK   45  A    between atoms: _144  and  _146
REMARK   46  A    between atoms: _146  and  _147
REMARK   47  A    between atoms: _146  and  _149
REMARK   48  A    between atoms: _149  and  _150
REMARK   49  A    between atoms: _150  and  _151
REMARK   50  A    between atoms: _154  and  _156
REMARK   51  A    between atoms: _156  and  _157
REMARK   52  A    between atoms: _156  and  _159
REMARK   53  A    between atoms: _159  and  _160
REMARK   54  A    between atoms: _165  and  _167
REMARK   55  A    between atoms: _167  and  _168
REMARK   56  A    between atoms: _167  and  _170
REMARK   57  A    between atoms: _170  and  _171
REMARK   58  A    between atoms: _171  and  _172
REMARK   59  A    between atoms: _175  and  _177
REMARK   60  A    between atoms: _177  and  _178
REMARK   61  A    between atoms: _177  and  _180
REMARK   62  A    between atoms: _180  and  _181
REMARK   63  A    between atoms: _184  and  _186
REMARK   64  A    between atoms: _186  and  _187
REMARK   65  A    between atoms: _186  and  _189
REMARK   66  A    between atoms: _189  and  _190
REMARK   67  A    between atoms: _191  and  ZN_406
REMARK   68  A    between atoms: _195  and  _197
REMARK   69  A    between atoms: _197  and  _198
REMARK   70  A    between atoms: _197  and  _200
REMARK   71  A    between atoms: _200  and  _201
REMARK   72  A    between atoms: _204  and  _206
REMARK   73  A    between atoms: _206  and  _207
REMARK   74  A    between atoms: _206  and  _209
REMARK   75  A    between atoms: _212  and  _214
REMARK   76  A    between atoms: _214  and  _215
REMARK   77  A    between atoms: _214  and  _217
REMARK   78  A    between atoms: _217  and  _218
REMARK   79  A    between atoms: _223  and  _225
REMARK   80  A    between atoms: _225  and  _226
REMARK   81  A    between atoms: _225  and  _228
REMARK   82  A    between atoms: _228  and  _229
REMARK   83  A    between atoms: _235  and  _237
REMARK   84  A    between atoms: _237  and  _238
REMARK   85  A    between atoms: _237  and  _240
REMARK   86  A    between atoms: _243  and  _245
REMARK   87  A    between atoms: _245  and  _246
REMARK   88  A    between atoms: _245  and  _248
REMARK   89  A    between atoms: _248  and  _249
REMARK   90  A    between atoms: _252  and  _254
REMARK   91  A    between atoms: _254  and  _255
REMARK   92  A    between atoms: _258  and  _260
REMARK   93  A    between atoms: _260  and  _261
REMARK   94  A    between atoms: _260  and  _263
REMARK   95  A    between atoms: _266  and  _268
REMARK   96  A    between atoms: _268  and  _269
REMARK   97  A    between atoms: _268  and  _271
REMARK   98  A    between atoms: _271  and  _272
REMARK   99  A    between atoms: _275  and  _277
REMARK  100  A    between atoms: _277  and  _278
REMARK  101  A    between atoms: _280  and  _282
REMARK  102  A    between atoms: _282  and  _283
REMARK  103  A    between atoms: _282  and  _285
REMARK  104  A    between atoms: _285  and  _286
REMARK  105  A    between atoms: _288  and  _290
REMARK  106  A    between atoms: _290  and  _291
REMARK  107  A    between atoms: _290  and  _293
REMARK  108  A    between atoms: _293  and  _294
REMARK  109  A    between atoms: _297  and  _299
REMARK  110  A    between atoms: _299  and  _300
REMARK  111  A    between atoms: _299  and  _302
REMARK  112  A    between atoms: _302  and  _303
REMARK  113  A    between atoms: _306  and  _308
REMARK  114  A    between atoms: _308  and  _309
REMARK  115  A    between atoms: _308  and  _311
REMARK  116  A    between atoms: _311  and  _312
REMARK  117  A    between atoms: _316  and  _317
REMARK  118  A    between atoms: _323  and  _324
REMARK  119  A    between atoms: _329  and  _331
REMARK  120  A    between atoms: _331  and  _332
REMARK  121  A    between atoms: _331  and  _334
REMARK  122  A    between atoms: _334  and  _335
REMARK  123  A    between atoms: _338  and  _340
REMARK  124  A    between atoms: _340  and  _341
REMARK  125  A    between atoms: _340  and  _343
REMARK  126  A    between atoms: _343  and  _344
REMARK  127  A    between atoms: _347  and  _349
REMARK  128  A    between atoms: _349  and  _350
REMARK  129  A    between atoms: _349  and  _352
REMARK  130  A    between atoms: _354  and  _356
REMARK  131  A    between atoms: _356  and  _357
REMARK  132  A    between atoms: _356  and  _359
REMARK  133  A    between atoms: _362  and  _364
REMARK  134  A    between atoms: _364  and  _365
REMARK  135  A    between atoms: _364  and  _367
REMARK  136  A    between atoms: _367  and  _368
REMARK  137  A    between atoms: _378  and  _380
REMARK  138  A    between atoms: _380  and  _381
REMARK  139  A    between atoms: _380  and  _383
REMARK  140  A    between atoms: _383  and  _384
REMARK  141  A    between atoms: _389  and  _391
REMARK  142  A    between atoms: _391  and  _392
REMARK  143  A    between atoms: _391  and  _394
REMARK  144  A    between atoms: _394  and  _395
REMARK  145  A    between atoms: _395  and  _396
REMARK  146  A    between atoms: _396  and  _397
REMARK                            x       y       z     vdW  Elec       q    Type
REMARK                         _______ _______ _______ _____ _____    ______ ____
ROOT
ATOM      1  O   HOH     1      -3.946   3.874   9.860  0.00  0.00    +0.000 OA
ENDROOT
TORSDOF 0
REMARK  Name = ../refined-set-2016/3dc3/3dc3_pocket.pdb
REMARK  146 active torsions:
REMARK  status: ('A' for Active; 'I' for Inactive)
REMARK    1  A    between atoms: _1  and  _3
REMARK    2  A    between atoms: _3  and  _4
REMARK    3  A    between atoms: _3  and  _6
REMARK    4  A    between atoms: _6  and  _7
REMARK    5  A    between atoms: _17  and  _19
REMARK    6  A    between atoms: _19  and  _20
REMARK    7  A    between atoms: _19  and  _22
REMARK    8  A    between atoms: _22  and  _23
REMARK    9  A    between atoms: _28  and  _29
REMARK   10  A    between atoms: _31  and  _33
REMARK   11  A    between atoms: _33  and  _34
REMARK   12  A    between atoms: _33  and  _36
REMARK   13  A    between atoms: _36  and  _37
REMARK   14  A    between atoms: _40  and  _41
REMARK   15  A    between atoms: _46  and  _48
REMARK   16  A    between atoms: _48  and  _49
REMARK   17  A    between atoms: _48  and  _51
REMARK   18  A    between atoms: _51  and  _52
REMARK   19  A    between atoms: _57  and  _59
REMARK   20  A    between atoms: _59  and  _60
REMARK   21  A    between atoms: _59  and  _62
REMARK   22  A    between atoms: _62  and  _63
REMARK   23  A    between atoms: _65  and  _67
REMARK   24  A    between atoms: _67  and  _68
REMARK   25  A    between atoms: _67  and  _70
REMARK   26  A    between atoms: _70  and  _71
REMARK   27  A    between atoms: _71  and  _72
REMARK   28  A    between atoms: _77  and  _79
REMARK   29  A    between atoms: _79  and  _80
REMARK   30  A    between atoms: _79  and  _82
REMARK   31  A    between atoms: _82  and  _83
REMARK   32  A    between atoms: _86  and  _88
REMARK   33  A    between atoms: _88  and  _89
REMARK   34  A    between atoms: _88  and  _91
REMARK   35  A    between atoms: _91  and  _92
REMARK   36  A    between atoms: _92  and  _93
REMARK   37  A    between atoms: _98  and  _100
REMARK   38  A    between atoms: _100  and  _101
REMARK   39  A    between atoms: _100  and  _103
REMARK   40  A    between atoms: _103  and  _104
REMARK   41  A    between atoms: _110  and  _112
REMARK   42  A    between atoms: _123  and  _126
REMARK   43  A    between atoms: _126  and  _127
REMARK   44  A    between atoms: _135  and  _136
REMARK   45  A    between atoms: _144  and  _146
REMARK   46  A    between atoms: _146  and  _147
REMARK   47  A    between atoms: _146  and  _149
REMARK   48  A    between atoms: _149  and  _150
REMARK   49  A    between atoms: _150  and  _151
REMARK   50  A    between atoms: _154  and  _156
REMARK   51  A    between atoms: _156  and  _157
REMARK   52  A    between atoms: _156  and  _159
REMARK   53  A    between atoms: _159  and  _160
REMARK   54  A    between atoms: _165  and  _167
REMARK   55  A    between atoms: _167  and  _168
REMARK   56  A    between atoms: _167  and  _170
REMARK   57  A    between atoms: _170  and  _171
REMARK   58  A    between atoms: _171  and  _172
REMARK   59  A    between atoms: _175  and  _177
REMARK   60  A    between atoms: _177  and  _178
REMARK   61  A    between atoms: _177  and  _180
REMARK   62  A    between atoms: _180  and  _181
REMARK   63  A    between atoms: _184  and  _186
REMARK   64  A    between atoms: _186  and  _187
REMARK   65  A    between atoms: _186  and  _189
REMARK   66  A    between atoms: _189  and  _190
REMARK   67  A    between atoms: _191  and  ZN_406
REMARK   68  A    between atoms: _195  and  _197
REMARK   69  A    between atoms: _197  and  _198
REMARK   70  A    between atoms: _197  and  _200
REMARK   71  A    between atoms: _200  and  _201
REMARK   72  A    between atoms: _204  and  _206
REMARK   73  A    between atoms: _206  and  _207
REMARK   74  A    between atoms: _206  and  _209
REMARK   75  A    between atoms: _212  and  _214
REMARK   76  A    between atoms: _214  and  _215
REMARK   77  A    between atoms: _214  and  _217
REMARK   78  A    between atoms: _217  and  _218
REMARK   79  A    between atoms: _223  and  _225
REMARK   80  A    between atoms: _225  and  _226
REMARK   81  A    between atoms: _225  and  _228
REMARK   82  A    between atoms: _228  and  _229
REMARK   83  A    between atoms: _235  and  _237
REMARK   84  A    between atoms: _237  and  _238
REMARK   85  A    between atoms: _237  and  _240
REMARK   86  A    between atoms: _243  and  _245
REMARK   87  A    between atoms: _245  and  _246
REMARK   88  A    between atoms: _245  and  _248
REMARK   89  A    between atoms: _248  and  _249
REMARK   90  A    between atoms: _252  and  _254
REMARK   91  A    between atoms: _254  and  _255
REMARK   92  A    between atoms: _258  and  _260
REMARK   93  A    between atoms: _260  and  _261
REMARK   94  A    between atoms: _260  and  _263
REMARK   95  A    between atoms: _266  and  _268
REMARK   96  A    between atoms: _268  and  _269
REMARK   97  A    between atoms: _268  and  _271
REMARK   98  A    between atoms: _271  and  _272
REMARK   99  A    between atoms: _275  and  _277
REMARK  100  A    between atoms: _277  and  _278
REMARK  101  A    between atoms: _280  and  _282
REMARK  102  A    between atoms: _282  and  _283
REMARK  103  A    between atoms: _282  and  _285
REMARK  104  A    between atoms: _285  and  _286
REMARK  105  A    between atoms: _288  and  _290
REMARK  106  A    between atoms: _290  and  _291
REMARK  107  A    between atoms: _290  and  _293
REMARK  108  A    between atoms: _293  and  _294
REMARK  109  A    between atoms: _297  and  _299
REMARK  110  A    between atoms: _299  and  _300
REMARK  111  A    between atoms: _299  and  _302
REMARK  112  A    between atoms: _302  and  _303
REMARK  113  A    between atoms: _306  and  _308
REMARK  114  A    between atoms: _308  and  _309
REMARK  115  A    between atoms: _308  and  _311
REMARK  116  A    between atoms: _311  and  _312
REMARK  117  A    between atoms: _316  and  _317
REMARK  118  A    between atoms: _323  and  _324
REMARK  119  A    between atoms: _329  and  _331
REMARK  120  A    between atoms: _331  and  _332
REMARK  121  A    between atoms: _331  and  _334
REMARK  122  A    between atoms: _334  and  _335
REMARK  123  A    between atoms: _338  and  _340
REMARK  124  A    between atoms: _340  and  _341
REMARK  125  A    between atoms: _340  and  _343
REMARK  126  A    between atoms: _343  and  _344
REMARK  127  A    between atoms: _347  and  _349
REMARK  128  A    between atoms: _349  and  _350
REMARK  129  A    between atoms: _349  and  _352
REMARK  130  A    between atoms: _354  and  _356
REMARK  131  A    between atoms: _356  and  _357
REMARK  132  A    between atoms: _356  and  _359
REMARK  133  A    between atoms: _362  and  _364
REMARK  134  A    between atoms: _364  and  _365
REMARK  135  A    between atoms: _364  and  _367
REMARK  136  A    between atoms: _367  and  _368
REMARK  137  A    between atoms: _378  and  _380
REMARK  138  A    between atoms: _380  and  _381
REMARK  139  A    between atoms: _380  and  _383
REMARK  140  A    between atoms: _383  and  _384
REMARK  141  A    between atoms: _389  and  _391
REMARK  142  A    between atoms: _391  and  _392
REMARK  143  A    between atoms: _391  and  _394
REMARK  144  A    between atoms: _394  and  _395
REMARK  145  A    between atoms: _395  and  _396
REMARK  146  A    between atoms: _396  and  _397
REMARK                            x       y       z     vdW  Elec       q    Type
REMARK                         _______ _______ _______ _____ _____    ______ ____
ROOT
ATOM      1  O   HOH     1      -3.961   0.878  12.786  0.00  0.00    +0.000 OA
ENDROOT
TORSDOF 0
REMARK  Name = ../refined-set-2016/3dc3/3dc3_pocket.pdb
REMARK  146 active torsions:
REMARK  status: ('A' for Active; 'I' for Inactive)
REMARK    1  A    between atoms: _1  and  _3
REMARK    2  A    between atoms: _3  and  _4
REMARK    3  A    between atoms: _3  and  _6
REMARK    4  A    between atoms: _6  and  _7
REMARK    5  A    between atoms: _17  and  _19
REMARK    6  A    between atoms: _19  and  _20
REMARK    7  A    between atoms: _19  and  _22
REMARK    8  A    between atoms: _22  and  _23
REMARK    9  A    between atoms: _28  and  _29
REMARK   10  A    between atoms: _31  and  _33
REMARK   11  A    between atoms: _33  and  _34
REMARK   12  A    between atoms: _33  and  _36
REMARK   13  A    between atoms: _36  and  _37
REMARK   14  A    between atoms: _40  and  _41
REMARK   15  A    between atoms: _46  and  _48
REMARK   16  A    between atoms: _48  and  _49
REMARK   17  A    between atoms: _48  and  _51
REMARK   18  A    between atoms: _51  and  _52
REMARK   19  A    between atoms: _57  and  _59
REMARK   20  A    between atoms: _59  and  _60
REMARK   21  A    between atoms: _59  and  _62
REMARK   22  A    between atoms: _62  and  _63
REMARK   23  A    between atoms: _65  and  _67
REMARK   24  A    between atoms: _67  and  _68
REMARK   25  A    between atoms: _67  and  _70
REMARK   26  A    between atoms: _70  and  _71
REMARK   27  A    between atoms: _71  and  _72
REMARK   28  A    between atoms: _77  and  _79
REMARK   29  A    between atoms: _79  and  _80
REMARK   30  A    between atoms: _79  and  _82
REMARK   31  A    between atoms: _82  and  _83
REMARK   32  A    between atoms: _86  and  _88
REMARK   33  A    between atoms: _88  and  _89
REMARK   34  A    between atoms: _88  and  _91
REMARK   35  A    between atoms: _91  and  _92
REMARK   36  A    between atoms: _92  and  _93
REMARK   37  A    between atoms: _98  and  _100
REMARK   38  A    between atoms: _100  and  _101
REMARK   39  A    between atoms: _100  and  _103
REMARK   40  A    between atoms: _103  and  _104
REMARK   41  A    between atoms: _110  and  _112
REMARK   42  A    between atoms: _123  and  _126
REMARK   43  A    between atoms: _126  and  _127
REMARK   44  A    between atoms: _135  and  _136
REMARK   45  A    between atoms: _144  and  _146
REMARK   46  A    between atoms: _146  and  _147
REMARK   47  A    between atoms: _146  and  _149
REMARK   48  A    between atoms: _149  and  _150
REMARK   49  A    between atoms: _150  and  _151
REMARK   50  A    between atoms: _154  and  _156
REMARK   51  A    between atoms: _156  and  _157
REMARK   52  A    between atoms: _156  and  _159
REMARK   53  A    between atoms: _159  and  _160
REMARK   54  A    between atoms: _165  and  _167
REMARK   55  A    between atoms: _167  and  _168
REMARK   56  A    between atoms: _167  and  _170
REMARK   57  A    between atoms: _170  and  _171
REMARK   58  A    between atoms: _171  and  _172
REMARK   59  A    between atoms: _175  and  _177
REMARK   60  A    between atoms: _177  and  _178
REMARK   61  A    between atoms: _177  and  _180
REMARK   62  A    between atoms: _180  and  _181
REMARK   63  A    between atoms: _184  and  _186
REMARK   64  A    between atoms: _186  and  _187
REMARK   65  A    between atoms: _186  and  _189
REMARK   66  A    between atoms: _189  and  _190
REMARK   67  A    between atoms: _191  and  ZN_406
REMARK   68  A    between atoms: _195  and  _197
REMARK   69  A    between atoms: _197  and  _198
REMARK   70  A    between atoms: _197  and  _200
REMARK   71  A    between atoms: _200  and  _201
REMARK   72  A    between atoms: _204  and  _206
REMARK   73  A    between atoms: _206  and  _207
REMARK   74  A    between atoms: _206  and  _209
REMARK   75  A    between atoms: _212  and  _214
REMARK   76  A    between atoms: _214  and  _215
REMARK   77  A    between atoms: _214  and  _217
REMARK   78  A    between atoms: _217  and  _218
REMARK   79  A    between atoms: _223  and  _225
REMARK   80  A    between atoms: _225  and  _226
REMARK   81  A    between atoms: _225  and  _228
REMARK   82  A    between atoms: _228  and  _229
REMARK   83  A    between atoms: _235  and  _237
REMARK   84  A    between atoms: _237  and  _238
REMARK   85  A    between atoms: _237  and  _240
REMARK   86  A    between atoms: _243  and  _245
REMARK   87  A    between atoms: _245  and  _246
REMARK   88  A    between atoms: _245  and  _248
REMARK   89  A    between atoms: _248  and  _249
REMARK   90  A    between atoms: _252  and  _254
REMARK   91  A    between atoms: _254  and  _255
REMARK   92  A    between atoms: _258  and  _260
REMARK   93  A    between atoms: _260  and  _261
REMARK   94  A    between atoms: _260  and  _263
REMARK   95  A    between atoms: _266  and  _268
REMARK   96  A    between atoms: _268  and  _269
REMARK   97  A    between atoms: _268  and  _271
REMARK   98  A    between atoms: _271  and  _272
REMARK   99  A    between atoms: _275  and  _277
REMARK  100  A    between atoms: _277  and  _278
REMARK  101  A    between atoms: _280  and  _282
REMARK  102  A    between atoms: _282  and  _283
REMARK  103  A    between atoms: _282  and  _285
REMARK  104  A    between atoms: _285  and  _286
REMARK  105  A    between atoms: _288  and  _290
REMARK  106  A    between atoms: _290  and  _291
REMARK  107  A    between atoms: _290  and  _293
REMARK  108  A    between atoms: _293  and  _294
REMARK  109  A    between atoms: _297  and  _299
REMARK  110  A    between atoms: _299  and  _300
REMARK  111  A    between atoms: _299  and  _302
REMARK  112  A    between atoms: _302  and  _303
REMARK  113  A    between atoms: _306  and  _308
REMARK  114  A    between atoms: _308  and  _309
REMARK  115  A    between atoms: _308  and  _311
REMARK  116  A    between atoms: _311  and  _312
REMARK  117  A    between atoms: _316  and  _317
REMARK  118  A    between atoms: _323  and  _324
REMARK  119  A    between atoms: _329  and  _331
REMARK  120  A    between atoms: _331  and  _332
REMARK  121  A    between atoms: _331  and  _334
REMARK  122  A    between atoms: _334  and  _335
REMARK  123  A    between atoms: _338  and  _340
REMARK  124  A    between atoms: _340  and  _341
REMARK  125  A    between atoms: _340  and  _343
REMARK  126  A    between atoms: _343  and  _344
REMARK  127  A    between atoms: _347  and  _349
REMARK  128  A    between atoms: _349  and  _350
REMARK  129  A    between atoms: _349  and  _352
REMARK  130  A    between atoms: _354  and  _356
REMARK  131  A    between atoms: _356  and  _357
REMARK  132  A    between atoms: _356  and  _359
REMARK  133  A    between atoms: _362  and  _364
REMARK  134  A    between atoms: _364  and  _365
REMARK  135  A    between atoms: _364  and  _367
REMARK  136  A    between atoms: _367  and  _368
REMARK  137  A    between atoms: _378  and  _380
REMARK  138  A    between atoms: _380  and  _381
REMARK  139  A    between atoms: _380  and  _383
REMARK  140  A    between atoms: _383  and  _384
REMARK  141  A    between atoms: _389  and  _391
REMARK  142  A    between atoms: _391  and  _392
REMARK  143  A    between atoms: _391  and  _394
REMARK  144  A    between atoms: _394  and  _395
REMARK  145  A    between atoms: _395  and  _396
REMARK  146  A    between atoms: _396  and  _397
REMARK                            x       y       z     vdW  Elec       q    Type
REMARK                         _______ _______ _______ _____ _____    ______ ____
ROOT
ATOM      1  O   HOH     1      -3.715   6.363   5.894  0.00  0.00    +0.000 OA
ENDROOT
TORSDOF 0
REMARK  Name = ../refined-set-2016/3dc3/3dc3_pocket.pdb
REMARK  146 active torsions:
REMARK  status: ('A' for Active; 'I' for Inactive)
REMARK    1  A    between atoms: _1  and  _3
REMARK    2  A    between atoms: _3  and  _4
REMARK    3  A    between atoms: _3  and  _6
REMARK    4  A    between atoms: _6  and  _7
REMARK    5  A    between atoms: _17  and  _19
REMARK    6  A    between atoms: _19  and  _20
REMARK    7  A    between atoms: _19  and  _22
REMARK    8  A    between atoms: _22  and  _23
REMARK    9  A    between atoms: _28  and  _29
REMARK   10  A    between atoms: _31  and  _33
REMARK   11  A    between atoms: _33  and  _34
REMARK   12  A    between atoms: _33  and  _36
REMARK   13  A    between atoms: _36  and  _37
REMARK   14  A    between atoms: _40  and  _41
REMARK   15  A    between atoms: _46  and  _48
REMARK   16  A    between atoms: _48  and  _49
REMARK   17  A    between atoms: _48  and  _51
REMARK   18  A    between atoms: _51  and  _52
REMARK   19  A    between atoms: _57  and  _59
REMARK   20  A    between atoms: _59  and  _60
REMARK   21  A    between atoms: _59  and  _62
REMARK   22  A    between atoms: _62  and  _63
REMARK   23  A    between atoms: _65  and  _67
REMARK   24  A    between atoms: _67  and  _68
REMARK   25  A    between atoms: _67  and  _70
REMARK   26  A    between atoms: _70  and  _71
REMARK   27  A    between atoms: _71  and  _72
REMARK   28  A    between atoms: _77  and  _79
REMARK   29  A    between atoms: _79  and  _80
REMARK   30  A    between atoms: _79  and  _82
REMARK   31  A    between atoms: _82  and  _83
REMARK   32  A    between atoms: _86  and  _88
REMARK   33  A    between atoms: _88  and  _89
REMARK   34  A    between atoms: _88  and  _91
REMARK   35  A    between atoms: _91  and  _92
REMARK   36  A    between atoms: _92  and  _93
REMARK   37  A    between atoms: _98  and  _100
REMARK   38  A    between atoms: _100  and  _101
REMARK   39  A    between atoms: _100  and  _103
REMARK   40  A    between atoms: _103  and  _104
REMARK   41  A    between atoms: _110  and  _112
REMARK   42  A    between atoms: _123  and  _126
REMARK   43  A    between atoms: _126  and  _127
REMARK   44  A    between atoms: _135  and  _136
REMARK   45  A    between atoms: _144  and  _146
REMARK   46  A    between atoms: _146  and  _147
REMARK   47  A    between atoms: _146  and  _149
REMARK   48  A    between atoms: _149  and  _150
REMARK   49  A    between atoms: _150  and  _151
REMARK   50  A    between atoms: _154  and  _156
REMARK   51  A    between atoms: _156  and  _157
REMARK   52  A    between atoms: _156  and  _159
REMARK   53  A    between atoms: _159  and  _160
REMARK   54  A    between atoms: _165  and  _167
REMARK   55  A    between atoms: _167  and  _168
REMARK   56  A    between atoms: _167  and  _170
REMARK   57  A    between atoms: _170  and  _171
REMARK   58  A    between atoms: _171  and  _172
REMARK   59  A    between atoms: _175  and  _177
REMARK   60  A    between atoms: _177  and  _178
REMARK   61  A    between atoms: _177  and  _180
REMARK   62  A    between atoms: _180  and  _181
REMARK   63  A    between atoms: _184  and  _186
REMARK   64  A    between atoms: _186  and  _187
REMARK   65  A    between atoms: _186  and  _189
REMARK   66  A    between atoms: _189  and  _190
REMARK   67  A    between atoms: _191  and  ZN_406
REMARK   68  A    between atoms: _195  and  _197
REMARK   69  A    between atoms: _197  and  _198
REMARK   70  A    between atoms: _197  and  _200
REMARK   71  A    between atoms: _200  and  _201
REMARK   72  A    between atoms: _204  and  _206
REMARK   73  A    between atoms: _206  and  _207
REMARK   74  A    between atoms: _206  and  _209
REMARK   75  A    between atoms: _212  and  _214
REMARK   76  A    between atoms: _214  and  _215
REMARK   77  A    between atoms: _214  and  _217
REMARK   78  A    between atoms: _217  and  _218
REMARK   79  A    between atoms: _223  and  _225
REMARK   80  A    between atoms: _225  and  _226
REMARK   81  A    between atoms: _225  and  _228
REMARK   82  A    between atoms: _228  and  _229
REMARK   83  A    between atoms: _235  and  _237
REMARK   84  A    between atoms: _237  and  _238
REMARK   85  A    between atoms: _237  and  _240
REMARK   86  A    between atoms: _243  and  _245
REMARK   87  A    between atoms: _245  and  _246
REMARK   88  A    between atoms: _245  and  _248
REMARK   89  A    between atoms: _248  and  _249
REMARK   90  A    between atoms: _252  and  _254
REMARK   91  A    between atoms: _254  and  _255
REMARK   92  A    between atoms: _258  and  _260
REMARK   93  A    between atoms: _260  and  _261
REMARK   94  A    between atoms: _260  and  _263
REMARK   95  A    between atoms: _266  and  _268
REMARK   96  A    between atoms: _268  and  _269
REMARK   97  A    between atoms: _268  and  _271
REMARK   98  A    between atoms: _271  and  _272
REMARK   99  A    between atoms: _275  and  _277
REMARK  100  A    between atoms: _277  and  _278
REMARK  101  A    between atoms: _280  and  _282
REMARK  102  A    between atoms: _282  and  _283
REMARK  103  A    between atoms: _282  and  _285
REMARK  104  A    between atoms: _285  and  _286
REMARK  105  A    between atoms: _288  and  _290
REMARK  106  A    between atoms: _290  and  _291
REMARK  107  A    between atoms: _290  and  _293
REMARK  108  A    between atoms: _293  and  _294
REMARK  109  A    between atoms: _297  and  _299
REMARK  110  A    between atoms: _299  and  _300
REMARK  111  A    between atoms: _299  and  _302
REMARK  112  A    between atoms: _302  and  _303
REMARK  113  A    between atoms: _306  and  _308
REMARK  114  A    between atoms: _308  and  _309
REMARK  115  A    between atoms: _308  and  _311
REMARK  116  A    between atoms: _311  and  _312
REMARK  117  A    between atoms: _316  and  _317
REMARK  118  A    between atoms: _323  and  _324
REMARK  119  A    between atoms: _329  and  _331
REMARK  120  A    between atoms: _331  and  _332
REMARK  121  A    between atoms: _331  and  _334
REMARK  122  A    between atoms: _334  and  _335
REMARK  123  A    between atoms: _338  and  _340
REMARK  124  A    between atoms: _340  and  _341
REMARK  125  A    between atoms: _340  and  _343
REMARK  126  A    between atoms: _343  and  _344
REMARK  127  A    between atoms: _347  and  _349
REMARK  128  A    between atoms: _349  and  _350
REMARK  129  A    between atoms: _349  and  _352
REMARK  130  A    between atoms: _354  and  _356
REMARK  131  A    between atoms: _356  and  _357
REMARK  132  A    between atoms: _356  and  _359
REMARK  133  A    between atoms: _362  and  _364
REMARK  134  A    between atoms: _364  and  _365
REMARK  135  A    between atoms: _364  and  _367
REMARK  136  A    between atoms: _367  and  _368
REMARK  137  A    between atoms: _378  and  _380
REMARK  138  A    between atoms: _380  and  _381
REMARK  139  A    between atoms: _380  and  _383
REMARK  140  A    between atoms: _383  and  _384
REMARK  141  A    between atoms: _389  and  _391
REMARK  142  A    between atoms: _391  and  _392
REMARK  143  A    between atoms: _391  and  _394
REMARK  144  A    between atoms: _394  and  _395
REMARK  145  A    between atoms: _395  and  _396
REMARK  146  A    between atoms: _396  and  _397
REMARK                            x       y       z     vdW  Elec       q    Type
REMARK                         _______ _______ _______ _____ _____    ______ ____
ROOT
ATOM      1  O   HOH     1      -2.271  11.765  13.890  0.00  0.00    +0.000 OA
ENDROOT
TORSDOF 0
