REMARK  Name = ../refined-set-2016/3fh7/3fh7_pocket.pdb
REMARK  252 active torsions:
REMARK  status: ('A' for Active; 'I' for Inactive)
REMARK    1  A    between atoms: _1  and  _3
REMARK    2  A    between atoms: _3  and  _4
REMARK    3  A    between atoms: _3  and  _6
REMARK    4  A    between atoms: _8  and  _10
REMARK    5  A    between atoms: _10  and  _11
REMARK    6  A    between atoms: _10  and  _13
REMARK    7  A    between atoms: _13  and  _14
REMARK    8  A    between atoms: _16  and  _18
REMARK    9  A    between atoms: _18  and  _19
REMARK   10  A    between atoms: _18  and  _21
REMARK   11  A    between atoms: _21  and  _22
REMARK   12  A    between atoms: _22  and  _23
REMARK   13  A    between atoms: _28  and  _30
REMARK   14  A    between atoms: _30  and  _31
REMARK   15  A    between atoms: _30  and  _33
REMARK   16  A    between atoms: _35  and  _37
REMARK   17  A    between atoms: _37  and  _38
REMARK   18  A    between atoms: _37  and  _40
REMARK   19  A    between atoms: _40  and  _41
REMARK   20  A    between atoms: _41  and  _42
REMARK   21  A    between atoms: _47  and  _49
REMARK   22  A    between atoms: _49  and  _50
REMARK   23  A    between atoms: _53  and  _55
REMARK   24  A    between atoms: _55  and  _56
REMARK   25  A    between atoms: _55  and  _58
REMARK   26  A    between atoms: _58  and  _59
REMARK   27  A    between atoms: _62  and  _64
REMARK   28  A    between atoms: _64  and  _65
REMARK   29  A    between atoms: _64  and  _67
REMARK   30  A    between atoms: _67  and  _68
REMARK   31  A    between atoms: _73  and  _75
REMARK   32  A    between atoms: _75  and  _76
REMARK   33  A    between atoms: _75  and  _78
REMARK   34  A    between atoms: _78  and  _79
REMARK   35  A    between atoms: _84  and  _85
REMARK   36  A    between atoms: _87  and  _89
REMARK   37  A    between atoms: _89  and  _90
REMARK   38  A    between atoms: _89  and  _92
REMARK   39  A    between atoms: _92  and  _93
REMARK   40  A    between atoms: _100  and  _101
REMARK   41  A    between atoms: _106  and  _108
REMARK   42  A    between atoms: _108  and  _109
REMARK   43  A    between atoms: _108  and  _111
REMARK   44  A    between atoms: _111  and  _112
REMARK   45  A    between atoms: _117  and  _118
REMARK   46  A    between atoms: _120  and  _122
REMARK   47  A    between atoms: _122  and  _123
REMARK   48  A    between atoms: _125  and  _127
REMARK   49  A    between atoms: _127  and  _128
REMARK   50  A    between atoms: _130  and  _132
REMARK   51  A    between atoms: _132  and  _133
REMARK   52  A    between atoms: _132  and  _135
REMARK   53  A    between atoms: _135  and  _136
REMARK   54  A    between atoms: _136  and  _137
REMARK   55  A    between atoms: _139  and  _141
REMARK   56  A    between atoms: _141  and  _142
REMARK   57  A    between atoms: _141  and  _144
REMARK   58  A    between atoms: _144  and  _145
REMARK   59  A    between atoms: _145  and  _146
REMARK   60  A    between atoms: _149  and  _151
REMARK   61  A    between atoms: _151  and  _152
REMARK   62  A    between atoms: _151  and  _154
REMARK   63  A    between atoms: _154  and  _155
REMARK   64  A    between atoms: _160  and  _162
REMARK   65  A    between atoms: _162  and  _163
REMARK   66  A    between atoms: _162  and  _165
REMARK   67  A    between atoms: _165  and  _166
REMARK   68  A    between atoms: _169  and  _171
REMARK   69  A    between atoms: _171  and  _172
REMARK   70  A    between atoms: _171  and  _174
REMARK   71  A    between atoms: _174  and  _175
REMARK   72  A    between atoms: _181  and  _183
REMARK   73  A    between atoms: _183  and  _184
REMARK   74  A    between atoms: _183  and  _186
REMARK   75  A    between atoms: _189  and  _191
REMARK   76  A    between atoms: _191  and  _192
REMARK   77  A    between atoms: _191  and  _194
REMARK   78  A    between atoms: _194  and  _195
REMARK   79  A    between atoms: _199  and  ZN_637
REMARK   80  A    between atoms: _200  and  _202
REMARK   81  A    between atoms: _202  and  _203
REMARK   82  A    between atoms: _202  and  _205
REMARK   83  A    between atoms: _205  and  _206
REMARK   84  A    between atoms: _206  and  _207
REMARK   85  A    between atoms: _210  and  _212
REMARK   86  A    between atoms: _212  and  _213
REMARK   87  A    between atoms: _212  and  _215
REMARK   88  A    between atoms: _215  and  _216
REMARK   89  A    between atoms: _219  and  _221
REMARK   90  A    between atoms: _221  and  _222
REMARK   91  A    between atoms: _221  and  _224
REMARK   92  A    between atoms: _224  and  _225
REMARK   93  A    between atoms: _229  and  ZN_637
REMARK   94  A    between atoms: _230  and  _232
REMARK   95  A    between atoms: _232  and  _233
REMARK   96  A    between atoms: _232  and  _235
REMARK   97  A    between atoms: _235  and  _236
REMARK   98  A    between atoms: _239  and  _241
REMARK   99  A    between atoms: _241  and  _242
REMARK  100  A    between atoms: _241  and  _244
REMARK  101  A    between atoms: _244  and  _245
REMARK  102  A    between atoms: _250  and  _252
REMARK  103  A    between atoms: _252  and  _253
REMARK  104  A    between atoms: _252  and  _255
REMARK  105  A    between atoms: _255  and  _256
REMARK  106  A    between atoms: _261  and  _263
REMARK  107  A    between atoms: _263  and  _264
REMARK  108  A    between atoms: _263  and  _266
REMARK  109  A    between atoms: _266  and  _267
REMARK  110  A    between atoms: _270  and  _272
REMARK  111  A    between atoms: _272  and  _273
REMARK  112  A    between atoms: _272  and  _275
REMARK  113  A    between atoms: _275  and  _276
REMARK  114  A    between atoms: _286  and  _288
REMARK  115  A    between atoms: _288  and  _289
REMARK  116  A    between atoms: _288  and  _291
REMARK  117  A    between atoms: _291  and  _292
REMARK  118  A    between atoms: _295  and  _297
REMARK  119  A    between atoms: _297  and  _298
REMARK  120  A    between atoms: _297  and  _300
REMARK  121  A    between atoms: _300  and  _301
REMARK  122  A    between atoms: _306  and  _308
REMARK  123  A    between atoms: _308  and  _309
REMARK  124  A    between atoms: _308  and  _311
REMARK  125  A    between atoms: _311  and  _312
REMARK  126  A    between atoms: _318  and  _320
REMARK  127  A    between atoms: _320  and  _321
REMARK  128  A    between atoms: _320  and  _323
REMARK  129  A    between atoms: _323  and  _324
REMARK  130  A    between atoms: _334  and  _336
REMARK  131  A    between atoms: _336  and  _337
REMARK  132  A    between atoms: _336  and  _339
REMARK  133  A    between atoms: _339  and  _340
REMARK  134  A    between atoms: _343  and  _345
REMARK  135  A    between atoms: _345  and  _346
REMARK  136  A    between atoms: _345  and  _348
REMARK  137  A    between atoms: _348  and  _349
REMARK  138  A    between atoms: _354  and  _356
REMARK  139  A    between atoms: _356  and  _357
REMARK  140  A    between atoms: _356  and  _359
REMARK  141  A    between atoms: _359  and  _360
REMARK  142  A    between atoms: _360  and  _361
REMARK  143  A    between atoms: _361  and  _362
REMARK  144  A    between atoms: _362  and  ZN_637
REMARK  145  A    between atoms: _364  and  _366
REMARK  146  A    between atoms: _366  and  _367
REMARK  147  A    between atoms: _366  and  _369
REMARK  148  A    between atoms: _369  and  _370
REMARK  149  A    between atoms: _373  and  _375
REMARK  150  A    between atoms: _375  and  _376
REMARK  151  A    between atoms: _375  and  _378
REMARK  152  A    between atoms: _381  and  _383
REMARK  153  A    between atoms: _383  and  _384
REMARK  154  A    between atoms: _383  and  _386
REMARK  155  A    between atoms: _386  and  _387
REMARK  156  A    between atoms: _387  and  _388
REMARK  157  A    between atoms: _391  and  _393
REMARK  158  A    between atoms: _393  and  _394
REMARK  159  A    between atoms: _393  and  _396
REMARK  160  A    between atoms: _396  and  _397
REMARK  161  A    between atoms: _404  and  _405
REMARK  162  A    between atoms: _410  and  _412
REMARK  163  A    between atoms: _412  and  _413
REMARK  164  A    between atoms: _412  and  _415
REMARK  165  A    between atoms: _415  and  _416
REMARK  166  A    between atoms: _422  and  _424
REMARK  167  A    between atoms: _424  and  _425
REMARK  168  A    between atoms: _424  and  _427
REMARK  169  A    between atoms: _427  and  _428
REMARK  170  A    between atoms: _431  and  _433
REMARK  171  A    between atoms: _433  and  _434
REMARK  172  A    between atoms: _433  and  _436
REMARK  173  A    between atoms: _436  and  _437
REMARK  174  A    between atoms: _437  and  _438
REMARK  175  A    between atoms: _438  and  _439
REMARK  176  A    between atoms: _439  and  _440
REMARK  177  A    between atoms: _444  and  _446
REMARK  178  A    between atoms: _446  and  _447
REMARK  179  A    between atoms: _446  and  _449
REMARK  180  A    between atoms: _449  and  _450
REMARK  181  A    between atoms: _453  and  _455
REMARK  182  A    between atoms: _455  and  _456
REMARK  183  A    between atoms: _455  and  _458
REMARK  184  A    between atoms: _461  and  _463
REMARK  185  A    between atoms: _463  and  _464
REMARK  186  A    between atoms: _463  and  _466
REMARK  187  A    between atoms: _469  and  _471
REMARK  188  A    between atoms: _471  and  _472
REMARK  189  A    between atoms: _471  and  _474
REMARK  190  A    between atoms: _474  and  _475
REMARK  191  A    between atoms: _478  and  _480
REMARK  192  A    between atoms: _480  and  _481
REMARK  193  A    between atoms: _480  and  _483
REMARK  194  A    between atoms: _483  and  _484
REMARK  195  A    between atoms: _487  and  _489
REMARK  196  A    between atoms: _489  and  _490
REMARK  197  A    between atoms: _489  and  _492
REMARK  198  A    between atoms: _492  and  _493
REMARK  199  A    between atoms: _496  and  _498
REMARK  200  A    between atoms: _498  and  _499
REMARK  201  A    between atoms: _498  and  _501
REMARK  202  A    between atoms: _501  and  _502
REMARK  203  A    between atoms: _506  and  _507
REMARK  204  A    between atoms: _512  and  _514
REMARK  205  A    between atoms: _514  and  _515
REMARK  206  A    between atoms: _514  and  _517
REMARK  207  A    between atoms: _517  and  _518
REMARK  208  A    between atoms: _521  and  _523
REMARK  209  A    between atoms: _523  and  _524
REMARK  210  A    between atoms: _523  and  _526
REMARK  211  A    between atoms: _529  and  _531
REMARK  212  A    between atoms: _531  and  _532
REMARK  213  A    between atoms: _535  and  _537
REMARK  214  A    between atoms: _537  and  _538
REMARK  215  A    between atoms: _537  and  _540
REMARK  216  A    between atoms: _540  and  _541
REMARK  217  A    between atoms: _546  and  _547
REMARK  218  A    between atoms: _549  and  _551
REMARK  219  A    between atoms: _551  and  _552
REMARK  220  A    between atoms: _551  and  _554
REMARK  221  A    between atoms: _554  and  _555
REMARK  222  A    between atoms: _557  and  _559
REMARK  223  A    between atoms: _559  and  _560
REMARK  224  A    between atoms: _559  and  _562
REMARK  225  A    between atoms: _562  and  _563
REMARK  226  A    between atoms: _565  and  _567
REMARK  227  A    between atoms: _567  and  _568
REMARK  228  A    between atoms: _567  and  _570
REMARK  229  A    between atoms: _574  and  _575
REMARK  230  A    between atoms: _580  and  _582
REMARK  231  A    between atoms: _582  and  _583
REMARK  232  A    between atoms: _582  and  _585
REMARK  233  A    between atoms: _585  and  _586
REMARK  234  A    between atoms: _591  and  _592
REMARK  235  A    between atoms: _594  and  _596
REMARK  236  A    between atoms: _596  and  _597
REMARK  237  A    between atoms: _596  and  _599
REMARK  238  A    between atoms: _599  and  _600
REMARK  239  A    between atoms: _600  and  _601
REMARK  240  A    between atoms: _601  and  _602
REMARK  241  A    between atoms: _611  and  _613
REMARK  242  A    between atoms: _613  and  _614
REMARK  243  A    between atoms: _613  and  _616
REMARK  244  A    between atoms: _616  and  _617
REMARK  245  A    between atoms: _617  and  _618
REMARK  246  A    between atoms: _620  and  _622
REMARK  247  A    between atoms: _622  and  _623
REMARK  248  A    between atoms: _622  and  _625
REMARK  249  A    between atoms: _628  and  _630
REMARK  250  A    between atoms: _630  and  _631
REMARK  251  A    between atoms: _630  and  _633
REMARK  252  A    between atoms: _633  and  _634
REMARK                            x       y       z     vdW  Elec       q    Type
REMARK                         _______ _______ _______ _____ _____    ______ ____
ROOT
ATOM      1  CA  CYS A   1      21.023  95.611   1.072  0.00  0.00    +0.145 C 
ENDROOT
BRANCH   1   2
ATOM      2  N   CYS A   1      20.415  96.094  -0.171  0.00  0.00    -0.238 NA
ATOM      3  H   CYS A   1      20.997  96.175  -1.029  0.00  0.00    +0.142 HD
ENDBRANCH   1   2
BRANCH   1   4
ATOM      4  C   CYS A   1      21.636  96.739   1.924  0.00  0.00    +0.225 C 
ATOM      5  O   CYS A   1      21.988  96.518   3.083  0.00  0.00    -0.287 OA
ENDBRANCH   1   4
BRANCH   1   6
ATOM      6  CB  CYS A   1      22.066  94.533   0.769  0.00  0.00    +0.094 C 
ATOM      7  SG  CYS A   1      21.360  93.056   0.025  0.00  0.00    -0.080 S 
ENDBRANCH   1   6
TORSDOF 3
REMARK  Name = ../refined-set-2016/3fh7/3fh7_pocket.pdb
REMARK  252 active torsions:
REMARK  status: ('A' for Active; 'I' for Inactive)
REMARK    1  A    between atoms: _1  and  _3
REMARK    2  A    between atoms: _3  and  _4
REMARK    3  A    between atoms: _3  and  _6
REMARK    4  A    between atoms: _8  and  _10
REMARK    5  A    between atoms: _10  and  _11
REMARK    6  A    between atoms: _10  and  _13
REMARK    7  A    between atoms: _13  and  _14
REMARK    8  A    between atoms: _16  and  _18
REMARK    9  A    between atoms: _18  and  _19
REMARK   10  A    between atoms: _18  and  _21
REMARK   11  A    between atoms: _21  and  _22
REMARK   12  A    between atoms: _22  and  _23
REMARK   13  A    between atoms: _28  and  _30
REMARK   14  A    between atoms: _30  and  _31
REMARK   15  A    between atoms: _30  and  _33
REMARK   16  A    between atoms: _35  and  _37
REMARK   17  A    between atoms: _37  and  _38
REMARK   18  A    between atoms: _37  and  _40
REMARK   19  A    between atoms: _40  and  _41
REMARK   20  A    between atoms: _41  and  _42
REMARK   21  A    between atoms: _47  and  _49
REMARK   22  A    between atoms: _49  and  _50
REMARK   23  A    between atoms: _53  and  _55
REMARK   24  A    between atoms: _55  and  _56
REMARK   25  A    between atoms: _55  and  _58
REMARK   26  A    between atoms: _58  and  _59
REMARK   27  A    between atoms: _62  and  _64
REMARK   28  A    between atoms: _64  and  _65
REMARK   29  A    between atoms: _64  and  _67
REMARK   30  A    between atoms: _67  and  _68
REMARK   31  A    between atoms: _73  and  _75
REMARK   32  A    between atoms: _75  and  _76
REMARK   33  A    between atoms: _75  and  _78
REMARK   34  A    between atoms: _78  and  _79
REMARK   35  A    between atoms: _84  and  _85
REMARK   36  A    between atoms: _87  and  _89
REMARK   37  A    between atoms: _89  and  _90
REMARK   38  A    between atoms: _89  and  _92
REMARK   39  A    between atoms: _92  and  _93
REMARK   40  A    between atoms: _100  and  _101
REMARK   41  A    between atoms: _106  and  _108
REMARK   42  A    between atoms: _108  and  _109
REMARK   43  A    between atoms: _108  and  _111
REMARK   44  A    between atoms: _111  and  _112
REMARK   45  A    between atoms: _117  and  _118
REMARK   46  A    between atoms: _120  and  _122
REMARK   47  A    between atoms: _122  and  _123
REMARK   48  A    between atoms: _125  and  _127
REMARK   49  A    between atoms: _127  and  _128
REMARK   50  A    between atoms: _130  and  _132
REMARK   51  A    between atoms: _132  and  _133
REMARK   52  A    between atoms: _132  and  _135
REMARK   53  A    between atoms: _135  and  _136
REMARK   54  A    between atoms: _136  and  _137
REMARK   55  A    between atoms: _139  and  _141
REMARK   56  A    between atoms: _141  and  _142
REMARK   57  A    between atoms: _141  and  _144
REMARK   58  A    between atoms: _144  and  _145
REMARK   59  A    between atoms: _145  and  _146
REMARK   60  A    between atoms: _149  and  _151
REMARK   61  A    between atoms: _151  and  _152
REMARK   62  A    between atoms: _151  and  _154
REMARK   63  A    between atoms: _154  and  _155
REMARK   64  A    between atoms: _160  and  _162
REMARK   65  A    between atoms: _162  and  _163
REMARK   66  A    between atoms: _162  and  _165
REMARK   67  A    between atoms: _165  and  _166
REMARK   68  A    between atoms: _169  and  _171
REMARK   69  A    between atoms: _171  and  _172
REMARK   70  A    between atoms: _171  and  _174
REMARK   71  A    between atoms: _174  and  _175
REMARK   72  A    between atoms: _181  and  _183
REMARK   73  A    between atoms: _183  and  _184
REMARK   74  A    between atoms: _183  and  _186
REMARK   75  A    between atoms: _189  and  _191
REMARK   76  A    between atoms: _191  and  _192
REMARK   77  A    between atoms: _191  and  _194
REMARK   78  A    between atoms: _194  and  _195
REMARK   79  A    between atoms: _199  and  ZN_637
REMARK   80  A    between atoms: _200  and  _202
REMARK   81  A    between atoms: _202  and  _203
REMARK   82  A    between atoms: _202  and  _205
REMARK   83  A    between atoms: _205  and  _206
REMARK   84  A    between atoms: _206  and  _207
REMARK   85  A    between atoms: _210  and  _212
REMARK   86  A    between atoms: _212  and  _213
REMARK   87  A    between atoms: _212  and  _215
REMARK   88  A    between atoms: _215  and  _216
REMARK   89  A    between atoms: _219  and  _221
REMARK   90  A    between atoms: _221  and  _222
REMARK   91  A    between atoms: _221  and  _224
REMARK   92  A    between atoms: _224  and  _225
REMARK   93  A    between atoms: _229  and  ZN_637
REMARK   94  A    between atoms: _230  and  _232
REMARK   95  A    between atoms: _232  and  _233
REMARK   96  A    between atoms: _232  and  _235
REMARK   97  A    between atoms: _235  and  _236
REMARK   98  A    between atoms: _239  and  _241
REMARK   99  A    between atoms: _241  and  _242
REMARK  100  A    between atoms: _241  and  _244
REMARK  101  A    between atoms: _244  and  _245
REMARK  102  A    between atoms: _250  and  _252
REMARK  103  A    between atoms: _252  and  _253
REMARK  104  A    between atoms: _252  and  _255
REMARK  105  A    between atoms: _255  and  _256
REMARK  106  A    between atoms: _261  and  _263
REMARK  107  A    between atoms: _263  and  _264
REMARK  108  A    between atoms: _263  and  _266
REMARK  109  A    between atoms: _266  and  _267
REMARK  110  A    between atoms: _270  and  _272
REMARK  111  A    between atoms: _272  and  _273
REMARK  112  A    between atoms: _272  and  _275
REMARK  113  A    between atoms: _275  and  _276
REMARK  114  A    between atoms: _286  and  _288
REMARK  115  A    between atoms: _288  and  _289
REMARK  116  A    between atoms: _288  and  _291
REMARK  117  A    between atoms: _291  and  _292
REMARK  118  A    between atoms: _295  and  _297
REMARK  119  A    between atoms: _297  and  _298
REMARK  120  A    between atoms: _297  and  _300
REMARK  121  A    between atoms: _300  and  _301
REMARK  122  A    between atoms: _306  and  _308
REMARK  123  A    between atoms: _308  and  _309
REMARK  124  A    between atoms: _308  and  _311
REMARK  125  A    between atoms: _311  and  _312
REMARK  126  A    between atoms: _318  and  _320
REMARK  127  A    between atoms: _320  and  _321
REMARK  128  A    between atoms: _320  and  _323
REMARK  129  A    between atoms: _323  and  _324
REMARK  130  A    between atoms: _334  and  _336
REMARK  131  A    between atoms: _336  and  _337
REMARK  132  A    between atoms: _336  and  _339
REMARK  133  A    between atoms: _339  and  _340
REMARK  134  A    between atoms: _343  and  _345
REMARK  135  A    between atoms: _345  and  _346
REMARK  136  A    between atoms: _345  and  _348
REMARK  137  A    between atoms: _348  and  _349
REMARK  138  A    between atoms: _354  and  _356
REMARK  139  A    between atoms: _356  and  _357
REMARK  140  A    between atoms: _356  and  _359
REMARK  141  A    between atoms: _359  and  _360
REMARK  142  A    between atoms: _360  and  _361
REMARK  143  A    between atoms: _361  and  _362
REMARK  144  A    between atoms: _362  and  ZN_637
REMARK  145  A    between atoms: _364  and  _366
REMARK  146  A    between atoms: _366  and  _367
REMARK  147  A    between atoms: _366  and  _369
REMARK  148  A    between atoms: _369  and  _370
REMARK  149  A    between atoms: _373  and  _375
REMARK  150  A    between atoms: _375  and  _376
REMARK  151  A    between atoms: _375  and  _378
REMARK  152  A    between atoms: _381  and  _383
REMARK  153  A    between atoms: _383  and  _384
REMARK  154  A    between atoms: _383  and  _386
REMARK  155  A    between atoms: _386  and  _387
REMARK  156  A    between atoms: _387  and  _388
REMARK  157  A    between atoms: _391  and  _393
REMARK  158  A    between atoms: _393  and  _394
REMARK  159  A    between atoms: _393  and  _396
REMARK  160  A    between atoms: _396  and  _397
REMARK  161  A    between atoms: _404  and  _405
REMARK  162  A    between atoms: _410  and  _412
REMARK  163  A    between atoms: _412  and  _413
REMARK  164  A    between atoms: _412  and  _415
REMARK  165  A    between atoms: _415  and  _416
REMARK  166  A    between atoms: _422  and  _424
REMARK  167  A    between atoms: _424  and  _425
REMARK  168  A    between atoms: _424  and  _427
REMARK  169  A    between atoms: _427  and  _428
REMARK  170  A    between atoms: _431  and  _433
REMARK  171  A    between atoms: _433  and  _434
REMARK  172  A    between atoms: _433  and  _436
REMARK  173  A    between atoms: _436  and  _437
REMARK  174  A    between atoms: _437  and  _438
REMARK  175  A    between atoms: _438  and  _439
REMARK  176  A    between atoms: _439  and  _440
REMARK  177  A    between atoms: _444  and  _446
REMARK  178  A    between atoms: _446  and  _447
REMARK  179  A    between atoms: _446  and  _449
REMARK  180  A    between atoms: _449  and  _450
REMARK  181  A    between atoms: _453  and  _455
REMARK  182  A    between atoms: _455  and  _456
REMARK  183  A    between atoms: _455  and  _458
REMARK  184  A    between atoms: _461  and  _463
REMARK  185  A    between atoms: _463  and  _464
REMARK  186  A    between atoms: _463  and  _466
REMARK  187  A    between atoms: _469  and  _471
REMARK  188  A    between atoms: _471  and  _472
REMARK  189  A    between atoms: _471  and  _474
REMARK  190  A    between atoms: _474  and  _475
REMARK  191  A    between atoms: _478  and  _480
REMARK  192  A    between atoms: _480  and  _481
REMARK  193  A    between atoms: _480  and  _483
REMARK  194  A    between atoms: _483  and  _484
REMARK  195  A    between atoms: _487  and  _489
REMARK  196  A    between atoms: _489  and  _490
REMARK  197  A    between atoms: _489  and  _492
REMARK  198  A    between atoms: _492  and  _493
REMARK  199  A    between atoms: _496  and  _498
REMARK  200  A    between atoms: _498  and  _499
REMARK  201  A    between atoms: _498  and  _501
REMARK  202  A    between atoms: _501  and  _502
REMARK  203  A    between atoms: _506  and  _507
REMARK  204  A    between atoms: _512  and  _514
REMARK  205  A    between atoms: _514  and  _515
REMARK  206  A    between atoms: _514  and  _517
REMARK  207  A    between atoms: _517  and  _518
REMARK  208  A    between atoms: _521  and  _523
REMARK  209  A    between atoms: _523  and  _524
REMARK  210  A    between atoms: _523  and  _526
REMARK  211  A    between atoms: _529  and  _531
REMARK  212  A    between atoms: _531  and  _532
REMARK  213  A    between atoms: _535  and  _537
REMARK  214  A    between atoms: _537  and  _538
REMARK  215  A    between atoms: _537  and  _540
REMARK  216  A    between atoms: _540  and  _541
REMARK  217  A    between atoms: _546  and  _547
REMARK  218  A    between atoms: _549  and  _551
REMARK  219  A    between atoms: _551  and  _552
REMARK  220  A    between atoms: _551  and  _554
REMARK  221  A    between atoms: _554  and  _555
REMARK  222  A    between atoms: _557  and  _559
REMARK  223  A    between atoms: _559  and  _560
REMARK  224  A    between atoms: _559  and  _562
REMARK  225  A    between atoms: _562  and  _563
REMARK  226  A    between atoms: _565  and  _567
REMARK  227  A    between atoms: _567  and  _568
REMARK  228  A    between atoms: _567  and  _570
REMARK  229  A    between atoms: _574  and  _575
REMARK  230  A    between atoms: _580  and  _582
REMARK  231  A    between atoms: _582  and  _583
REMARK  232  A    between atoms: _582  and  _585
REMARK  233  A    between atoms: _585  and  _586
REMARK  234  A    between atoms: _591  and  _592
REMARK  235  A    between atoms: _594  and  _596
REMARK  236  A    between atoms: _596  and  _597
REMARK  237  A    between atoms: _596  and  _599
REMARK  238  A    between atoms: _599  and  _600
REMARK  239  A    between atoms: _600  and  _601
REMARK  240  A    between atoms: _601  and  _602
REMARK  241  A    between atoms: _611  and  _613
REMARK  242  A    between atoms: _613  and  _614
REMARK  243  A    between atoms: _613  and  _616
REMARK  244  A    between atoms: _616  and  _617
REMARK  245  A    between atoms: _617  and  _618
REMARK  246  A    between atoms: _620  and  _622
REMARK  247  A    between atoms: _622  and  _623
REMARK  248  A    between atoms: _622  and  _625
REMARK  249  A    between atoms: _628  and  _630
REMARK  250  A    between atoms: _630  and  _631
REMARK  251  A    between atoms: _630  and  _633
REMARK  252  A    between atoms: _633  and  _634
REMARK                            x       y       z     vdW  Elec       q    Type
REMARK                         _______ _______ _______ _____ _____    ______ ____
ROOT
ATOM      1  CA  GLN A   4      31.630  90.154   2.779  0.00  0.00    +0.149 C 
ENDROOT
BRANCH   1   2
ATOM      2  C   GLN A   4      30.431  89.372   3.364  0.00  0.00    +0.241 C 
ATOM      3  O   GLN A   4      30.623  88.535   4.228  0.00  0.00    -0.273 OA
ATOM      4  N   ALA A   5      29.197  89.658   2.939  0.00  0.00    -0.297 N 
ATOM      5  H   ALA A   5      28.425  89.087   3.338  0.00  0.00    +0.150 HD
BRANCH   4   6
ATOM      6  CA  ALA A   5      28.817  90.685   1.975  0.00  0.00    +0.149 C 
ATOM      7  CB  ALA A   5      27.479  90.260   1.287  0.00  0.00    +0.031 C 
BRANCH   6   8
ATOM      8  C   ALA A   5      28.652  92.062   2.609  0.00  0.00    +0.241 C 
ATOM      9  N   ILE A   6      27.902  92.112   3.721  0.00  0.00    -0.297 N 
ATOM     10  H   ILE A   6      27.620  91.227   4.189  0.00  0.00    +0.150 HD
ATOM     11  O   ALA A   5      29.176  93.071   2.090  0.00  0.00    -0.273 OA
BRANCH   9  12
ATOM     12  CA  ILE A   6      27.476  93.394   4.284  0.00  0.00    +0.149 C 
BRANCH  12  13
ATOM     13  C   ILE A   6      27.770  93.533   5.796  0.00  0.00    +0.241 C 
ATOM     14  O   ILE A   6      26.928  94.045   6.559  0.00  0.00    -0.273 OA
ATOM     15  N   HIS A   7      28.962  93.089   6.204  0.00  0.00    -0.298 N 
ATOM     16  H   HIS A   7      29.595  92.646   5.508  0.00  0.00    +0.150 HD
BRANCH  15  17
ATOM     17  CA  HIS A   7      29.409  93.200   7.583  0.00  0.00    +0.143 C 
BRANCH  17  18
ATOM     18  C   HIS A   7      30.409  94.295   7.829  0.00  0.00    +0.227 C 
ATOM     19  O   HIS A   7      30.741  94.575   8.991  0.00  0.00    -0.286 OA
ENDBRANCH  17  18
BRANCH  17  20
ATOM     20  CB  HIS A   7      29.999  91.876   8.065  0.00  0.00    +0.075 C 
BRANCH  20  21
ATOM     21  CG  HIS A   7      29.039  90.742   7.977  0.00  0.00    +0.082 A 
ATOM     22  ND1 HIS A   7      27.978  90.606   8.843  0.00  0.00    -0.227 NA
ATOM     23  CE1 HIS A   7      27.295  89.519   8.524  0.00  0.00    +0.199 A 
ATOM     24  NE2 HIS A   7      27.865  88.958   7.474  0.00  0.00    -0.221 NA
ATOM     25  CD2 HIS A   7      28.956  89.710   7.105  0.00  0.00    +0.115 A 
ENDBRANCH  20  21
ENDBRANCH  17  20
ENDBRANCH  15  17
ENDBRANCH  12  13
BRANCH  12  26
ATOM     26  CB  ILE A   6      25.974  93.674   3.983  0.00  0.00    +0.027 C 
ATOM     27  CG2 ILE A   6      25.732  93.922   2.469  0.00  0.00    +0.002 C 
BRANCH  26  28
ATOM     28  CG1 ILE A   6      25.076  92.520   4.471  0.00  0.00    +0.002 C 
ATOM     29  CD1 ILE A   6      23.610  92.930   4.607  0.00  0.00    +0.000 C 
ENDBRANCH  26  28
ENDBRANCH  12  26
ENDBRANCH   9  12
ENDBRANCH   6   8
ENDBRANCH   4   6
ENDBRANCH   1   2
BRANCH   1  32
ATOM     30  C   CYS A   3      32.150  91.446   4.748  0.00  0.00    +0.242 C 
ATOM     31  O   CYS A   3      31.009  91.934   4.774  0.00  0.00    -0.273 OA
ATOM     32  N   GLN A   4      32.536  90.546   3.843  0.00  0.00    -0.297 N 
ATOM     33  H   GLN A   4      33.485  90.125   3.900  0.00  0.00    +0.150 HD
BRANCH  30  34
ATOM     34  CA  CYS A   3      33.176  91.870   5.791  0.00  0.00    +0.160 C 
BRANCH  34  37
ATOM     35  C   GLN A   2      33.910  89.903   7.022  0.00  0.00    +0.241 C 
ATOM     36  O   GLN A   2      32.784  89.743   7.516  0.00  0.00    -0.273 OA
ATOM     37  N   CYS A   3      34.183  90.849   6.116  0.00  0.00    -0.296 N 
ATOM     38  H   CYS A   3      35.108  90.862   5.641  0.00  0.00    +0.150 HD
BRANCH  35  39
ATOM     39  CA  GLN A   2      35.078  89.009   7.452  0.00  0.00    +0.149 C 
BRANCH  39  41
ATOM     40  C   SER A   1      36.897  89.338   9.028  0.00  0.00    +0.241 C 
ATOM     41  N   GLN A   2      35.618  89.504   8.701  0.00  0.00    -0.297 N 
ATOM     42  H   GLN A   2      34.988  90.003   9.361  0.00  0.00    +0.150 HD
ATOM     43  O   SER A   1      37.687  88.604   8.403  0.00  0.00    -0.274 OA
BRANCH  40  44
ATOM     44  CA  SER A   1      37.356  90.125  10.237  0.00  0.00    +0.174 C 
BRANCH  44  45
ATOM     45  N   SER A   1      38.579  89.548  10.768  0.00  0.00    -0.236 NA
ATOM     46  H   SER A   1      39.480  89.682  10.266  0.00  0.00    +0.142 HD
ENDBRANCH  44  45
BRANCH  44  47
ATOM     47  CB  SER A   1      37.580  91.592   9.873  0.00  0.00    +0.163 C 
BRANCH  47  48
ATOM     48  OG  SER A   1      38.317  91.669   8.686  0.00  0.00    -0.380 OA
ATOM     49  H   SER A   1      37.817  91.220   7.959  0.00  0.00    +0.211 HD
ENDBRANCH  47  48
ENDBRANCH  44  47
ENDBRANCH  40  44
ENDBRANCH  39  41
BRANCH  39  50
ATOM     50  CB  GLN A   2      34.648  87.534   7.560  0.00  0.00    +0.039 C 
BRANCH  50  51
ATOM     51  CG  GLN A   2      34.005  87.007   6.279  0.00  0.00    +0.087 C 
BRANCH  51  52
ATOM     52  CD  GLN A   2      34.958  87.117   5.095  0.00  0.00    +0.219 C 
ATOM     53  OE1 GLN A   2      35.975  86.406   5.044  0.00  0.00    -0.275 OA
ATOM     54  NE2 GLN A   2      34.656  88.031   4.145  0.00  0.00    -0.329 N 
ATOM     55 HE21 GLN A   2      33.792  88.604   4.231  0.00  0.00    +0.145 HD
ATOM     56 HE22 GLN A   2      35.287  88.161   3.329  0.00  0.00    +0.145 HD
ENDBRANCH  51  52
ENDBRANCH  50  51
ENDBRANCH  39  50
ENDBRANCH  35  39
ENDBRANCH  34  37
BRANCH  34  57
ATOM     57  CB  CYS A   3      33.837  93.191   5.395  0.00  0.00    +0.098 C 
ATOM     58  SG  CYS A   3      34.639  93.946   6.804  0.00  0.00    -0.080 S 
ENDBRANCH  34  57
ENDBRANCH  30  34
ENDBRANCH   1  32
BRANCH   1  59
ATOM     59  CB  GLN A   4      32.344  89.349   1.682  0.00  0.00    +0.039 C 
BRANCH  59  60
ATOM     60  CG  GLN A   4      31.518  89.258   0.380  0.00  0.00    +0.087 C 
BRANCH  60  61
ATOM     61  CD  GLN A   4      32.189  88.439  -0.687  0.00  0.00    +0.219 C 
ATOM     62  OE1 GLN A   4      33.058  87.632  -0.392  0.00  0.00    -0.275 OA
ATOM     63  NE2 GLN A   4      31.779  88.623  -1.931  0.00  0.00    -0.329 N 
ATOM     64 HE21 GLN A   4      31.036  89.321  -2.136  0.00  0.00    +0.145 HD
ATOM     65 HE22 GLN A   4      32.200  88.069  -2.704  0.00  0.00    +0.145 HD
ENDBRANCH  60  61
ENDBRANCH  59  60
ENDBRANCH   1  59
TORSDOF 27
REMARK  Name = ../refined-set-2016/3fh7/3fh7_pocket.pdb
REMARK  252 active torsions:
REMARK  status: ('A' for Active; 'I' for Inactive)
REMARK    1  A    between atoms: _1  and  _3
REMARK    2  A    between atoms: _3  and  _4
REMARK    3  A    between atoms: _3  and  _6
REMARK    4  A    between atoms: _8  and  _10
REMARK    5  A    between atoms: _10  and  _11
REMARK    6  A    between atoms: _10  and  _13
REMARK    7  A    between atoms: _13  and  _14
REMARK    8  A    between atoms: _16  and  _18
REMARK    9  A    between atoms: _18  and  _19
REMARK   10  A    between atoms: _18  and  _21
REMARK   11  A    between atoms: _21  and  _22
REMARK   12  A    between atoms: _22  and  _23
REMARK   13  A    between atoms: _28  and  _30
REMARK   14  A    between atoms: _30  and  _31
REMARK   15  A    between atoms: _30  and  _33
REMARK   16  A    between atoms: _35  and  _37
REMARK   17  A    between atoms: _37  and  _38
REMARK   18  A    between atoms: _37  and  _40
REMARK   19  A    between atoms: _40  and  _41
REMARK   20  A    between atoms: _41  and  _42
REMARK   21  A    between atoms: _47  and  _49
REMARK   22  A    between atoms: _49  and  _50
REMARK   23  A    between atoms: _53  and  _55
REMARK   24  A    between atoms: _55  and  _56
REMARK   25  A    between atoms: _55  and  _58
REMARK   26  A    between atoms: _58  and  _59
REMARK   27  A    between atoms: _62  and  _64
REMARK   28  A    between atoms: _64  and  _65
REMARK   29  A    between atoms: _64  and  _67
REMARK   30  A    between atoms: _67  and  _68
REMARK   31  A    between atoms: _73  and  _75
REMARK   32  A    between atoms: _75  and  _76
REMARK   33  A    between atoms: _75  and  _78
REMARK   34  A    between atoms: _78  and  _79
REMARK   35  A    between atoms: _84  and  _85
REMARK   36  A    between atoms: _87  and  _89
REMARK   37  A    between atoms: _89  and  _90
REMARK   38  A    between atoms: _89  and  _92
REMARK   39  A    between atoms: _92  and  _93
REMARK   40  A    between atoms: _100  and  _101
REMARK   41  A    between atoms: _106  and  _108
REMARK   42  A    between atoms: _108  and  _109
REMARK   43  A    between atoms: _108  and  _111
REMARK   44  A    between atoms: _111  and  _112
REMARK   45  A    between atoms: _117  and  _118
REMARK   46  A    between atoms: _120  and  _122
REMARK   47  A    between atoms: _122  and  _123
REMARK   48  A    between atoms: _125  and  _127
REMARK   49  A    between atoms: _127  and  _128
REMARK   50  A    between atoms: _130  and  _132
REMARK   51  A    between atoms: _132  and  _133
REMARK   52  A    between atoms: _132  and  _135
REMARK   53  A    between atoms: _135  and  _136
REMARK   54  A    between atoms: _136  and  _137
REMARK   55  A    between atoms: _139  and  _141
REMARK   56  A    between atoms: _141  and  _142
REMARK   57  A    between atoms: _141  and  _144
REMARK   58  A    between atoms: _144  and  _145
REMARK   59  A    between atoms: _145  and  _146
REMARK   60  A    between atoms: _149  and  _151
REMARK   61  A    between atoms: _151  and  _152
REMARK   62  A    between atoms: _151  and  _154
REMARK   63  A    between atoms: _154  and  _155
REMARK   64  A    between atoms: _160  and  _162
REMARK   65  A    between atoms: _162  and  _163
REMARK   66  A    between atoms: _162  and  _165
REMARK   67  A    between atoms: _165  and  _166
REMARK   68  A    between atoms: _169  and  _171
REMARK   69  A    between atoms: _171  and  _172
REMARK   70  A    between atoms: _171  and  _174
REMARK   71  A    between atoms: _174  and  _175
REMARK   72  A    between atoms: _181  and  _183
REMARK   73  A    between atoms: _183  and  _184
REMARK   74  A    between atoms: _183  and  _186
REMARK   75  A    between atoms: _189  and  _191
REMARK   76  A    between atoms: _191  and  _192
REMARK   77  A    between atoms: _191  and  _194
REMARK   78  A    between atoms: _194  and  _195
REMARK   79  A    between atoms: _199  and  ZN_637
REMARK   80  A    between atoms: _200  and  _202
REMARK   81  A    between atoms: _202  and  _203
REMARK   82  A    between atoms: _202  and  _205
REMARK   83  A    between atoms: _205  and  _206
REMARK   84  A    between atoms: _206  and  _207
REMARK   85  A    between atoms: _210  and  _212
REMARK   86  A    between atoms: _212  and  _213
REMARK   87  A    between atoms: _212  and  _215
REMARK   88  A    between atoms: _215  and  _216
REMARK   89  A    between atoms: _219  and  _221
REMARK   90  A    between atoms: _221  and  _222
REMARK   91  A    between atoms: _221  and  _224
REMARK   92  A    between atoms: _224  and  _225
REMARK   93  A    between atoms: _229  and  ZN_637
REMARK   94  A    between atoms: _230  and  _232
REMARK   95  A    between atoms: _232  and  _233
REMARK   96  A    between atoms: _232  and  _235
REMARK   97  A    between atoms: _235  and  _236
REMARK   98  A    between atoms: _239  and  _241
REMARK   99  A    between atoms: _241  and  _242
REMARK  100  A    between atoms: _241  and  _244
REMARK  101  A    between atoms: _244  and  _245
REMARK  102  A    between atoms: _250  and  _252
REMARK  103  A    between atoms: _252  and  _253
REMARK  104  A    between atoms: _252  and  _255
REMARK  105  A    between atoms: _255  and  _256
REMARK  106  A    between atoms: _261  and  _263
REMARK  107  A    between atoms: _263  and  _264
REMARK  108  A    between atoms: _263  and  _266
REMARK  109  A    between atoms: _266  and  _267
REMARK  110  A    between atoms: _270  and  _272
REMARK  111  A    between atoms: _272  and  _273
REMARK  112  A    between atoms: _272  and  _275
REMARK  113  A    between atoms: _275  and  _276
REMARK  114  A    between atoms: _286  and  _288
REMARK  115  A    between atoms: _288  and  _289
REMARK  116  A    between atoms: _288  and  _291
REMARK  117  A    between atoms: _291  and  _292
REMARK  118  A    between atoms: _295  and  _297
REMARK  119  A    between atoms: _297  and  _298
REMARK  120  A    between atoms: _297  and  _300
REMARK  121  A    between atoms: _300  and  _301
REMARK  122  A    between atoms: _306  and  _308
REMARK  123  A    between atoms: _308  and  _309
REMARK  124  A    between atoms: _308  and  _311
REMARK  125  A    between atoms: _311  and  _312
REMARK  126  A    between atoms: _318  and  _320
REMARK  127  A    between atoms: _320  and  _321
REMARK  128  A    between atoms: _320  and  _323
REMARK  129  A    between atoms: _323  and  _324
REMARK  130  A    between atoms: _334  and  _336
REMARK  131  A    between atoms: _336  and  _337
REMARK  132  A    between atoms: _336  and  _339
REMARK  133  A    between atoms: _339  and  _340
REMARK  134  A    between atoms: _343  and  _345
REMARK  135  A    between atoms: _345  and  _346
REMARK  136  A    between atoms: _345  and  _348
REMARK  137  A    between atoms: _348  and  _349
REMARK  138  A    between atoms: _354  and  _356
REMARK  139  A    between atoms: _356  and  _357
REMARK  140  A    between atoms: _356  and  _359
REMARK  141  A    between atoms: _359  and  _360
REMARK  142  A    between atoms: _360  and  _361
REMARK  143  A    between atoms: _361  and  _362
REMARK  144  A    between atoms: _362  and  ZN_637
REMARK  145  A    between atoms: _364  and  _366
REMARK  146  A    between atoms: _366  and  _367
REMARK  147  A    between atoms: _366  and  _369
REMARK  148  A    between atoms: _369  and  _370
REMARK  149  A    between atoms: _373  and  _375
REMARK  150  A    between atoms: _375  and  _376
REMARK  151  A    between atoms: _375  and  _378
REMARK  152  A    between atoms: _381  and  _383
REMARK  153  A    between atoms: _383  and  _384
REMARK  154  A    between atoms: _383  and  _386
REMARK  155  A    between atoms: _386  and  _387
REMARK  156  A    between atoms: _387  and  _388
REMARK  157  A    between atoms: _391  and  _393
REMARK  158  A    between atoms: _393  and  _394
REMARK  159  A    between atoms: _393  and  _396
REMARK  160  A    between atoms: _396  and  _397
REMARK  161  A    between atoms: _404  and  _405
REMARK  162  A    between atoms: _410  and  _412
REMARK  163  A    between atoms: _412  and  _413
REMARK  164  A    between atoms: _412  and  _415
REMARK  165  A    between atoms: _415  and  _416
REMARK  166  A    between atoms: _422  and  _424
REMARK  167  A    between atoms: _424  and  _425
REMARK  168  A    between atoms: _424  and  _427
REMARK  169  A    between atoms: _427  and  _428
REMARK  170  A    between atoms: _431  and  _433
REMARK  171  A    between atoms: _433  and  _434
REMARK  172  A    between atoms: _433  and  _436
REMARK  173  A    between atoms: _436  and  _437
REMARK  174  A    between atoms: _437  and  _438
REMARK  175  A    between atoms: _438  and  _439
REMARK  176  A    between atoms: _439  and  _440
REMARK  177  A    between atoms: _444  and  _446
REMARK  178  A    between atoms: _446  and  _447
REMARK  179  A    between atoms: _446  and  _449
REMARK  180  A    between atoms: _449  and  _450
REMARK  181  A    between atoms: _453  and  _455
REMARK  182  A    between atoms: _455  and  _456
REMARK  183  A    between atoms: _455  and  _458
REMARK  184  A    between atoms: _461  and  _463
REMARK  185  A    between atoms: _463  and  _464
REMARK  186  A    between atoms: _463  and  _466
REMARK  187  A    between atoms: _469  and  _471
REMARK  188  A    between atoms: _471  and  _472
REMARK  189  A    between atoms: _471  and  _474
REMARK  190  A    between atoms: _474  and  _475
REMARK  191  A    between atoms: _478  and  _480
REMARK  192  A    between atoms: _480  and  _481
REMARK  193  A    between atoms: _480  and  _483
REMARK  194  A    between atoms: _483  and  _484
REMARK  195  A    between atoms: _487  and  _489
REMARK  196  A    between atoms: _489  and  _490
REMARK  197  A    between atoms: _489  and  _492
REMARK  198  A    between atoms: _492  and  _493
REMARK  199  A    between atoms: _496  and  _498
REMARK  200  A    between atoms: _498  and  _499
REMARK  201  A    between atoms: _498  and  _501
REMARK  202  A    between atoms: _501  and  _502
REMARK  203  A    between atoms: _506  and  _507
REMARK  204  A    between atoms: _512  and  _514
REMARK  205  A    between atoms: _514  and  _515
REMARK  206  A    between atoms: _514  and  _517
REMARK  207  A    between atoms: _517  and  _518
REMARK  208  A    between atoms: _521  and  _523
REMARK  209  A    between atoms: _523  and  _524
REMARK  210  A    between atoms: _523  and  _526
REMARK  211  A    between atoms: _529  and  _531
REMARK  212  A    between atoms: _531  and  _532
REMARK  213  A    between atoms: _535  and  _537
REMARK  214  A    between atoms: _537  and  _538
REMARK  215  A    between atoms: _537  and  _540
REMARK  216  A    between atoms: _540  and  _541
REMARK  217  A    between atoms: _546  and  _547
REMARK  218  A    between atoms: _549  and  _551
REMARK  219  A    between atoms: _551  and  _552
REMARK  220  A    between atoms: _551  and  _554
REMARK  221  A    between atoms: _554  and  _555
REMARK  222  A    between atoms: _557  and  _559
REMARK  223  A    between atoms: _559  and  _560
REMARK  224  A    between atoms: _559  and  _562
REMARK  225  A    between atoms: _562  and  _563
REMARK  226  A    between atoms: _565  and  _567
REMARK  227  A    between atoms: _567  and  _568
REMARK  228  A    between atoms: _567  and  _570
REMARK  229  A    between atoms: _574  and  _575
REMARK  230  A    between atoms: _580  and  _582
REMARK  231  A    between atoms: _582  and  _583
REMARK  232  A    between atoms: _582  and  _585
REMARK  233  A    between atoms: _585  and  _586
REMARK  234  A    between atoms: _591  and  _592
REMARK  235  A    between atoms: _594  and  _596
REMARK  236  A    between atoms: _596  and  _597
REMARK  237  A    between atoms: _596  and  _599
REMARK  238  A    between atoms: _599  and  _600
REMARK  239  A    between atoms: _600  and  _601
REMARK  240  A    between atoms: _601  and  _602
REMARK  241  A    between atoms: _611  and  _613
REMARK  242  A    between atoms: _613  and  _614
REMARK  243  A    between atoms: _613  and  _616
REMARK  244  A    between atoms: _616  and  _617
REMARK  245  A    between atoms: _617  and  _618
REMARK  246  A    between atoms: _620  and  _622
REMARK  247  A    between atoms: _622  and  _623
REMARK  248  A    between atoms: _622  and  _625
REMARK  249  A    between atoms: _628  and  _630
REMARK  250  A    between atoms: _630  and  _631
REMARK  251  A    between atoms: _630  and  _633
REMARK  252  A    between atoms: _633  and  _634
REMARK                            x       y       z     vdW  Elec       q    Type
REMARK                         _______ _______ _______ _____ _____    ______ ____
ROOT
ATOM      1  CG  TYR A   1      32.887  93.090  -0.495  0.00  0.00    -0.020 A 
ATOM      2  CD2 TYR A   1      33.639  91.927  -0.757  0.00  0.00    -0.001 A 
ATOM      3  CE2 TYR A   1      33.928  91.541  -2.072  0.00  0.00    +0.036 A 
ATOM      4  CZ  TYR A   1      33.466  92.293  -3.140  0.00  0.00    +0.134 A 
ATOM      5  CE1 TYR A   1      32.706  93.435  -2.914  0.00  0.00    +0.036 A 
ATOM      6  CD1 TYR A   1      32.425  93.833  -1.592  0.00  0.00    -0.001 A 
ENDROOT
BRANCH   4   7
ATOM      7  OH  TYR A   1      33.773  91.912  -4.447  0.00  0.00    -0.506 OA
ATOM      8  HH  TYR A   1      34.316  91.084  -4.429  0.00  0.00    +0.292 HD
ENDBRANCH   4   7
BRANCH   1   9
ATOM      9  CB  TYR A   1      32.545  93.502   0.929  0.00  0.00    +0.051 C 
BRANCH   9  10
ATOM     10  CA  TYR A   1      33.575  94.378   1.672  0.00  0.00    +0.137 C 
BRANCH  10  11
ATOM     11  N   TYR A   1      33.583  95.779   1.198  0.00  0.00    -0.239 NA
ATOM     12  H   TYR A   1      33.051  96.037   0.343  0.00  0.00    +0.142 HD
ENDBRANCH  10  11
BRANCH  10  13
ATOM     13  C   TYR A   1      34.966  93.729   1.648  0.00  0.00    +0.224 C 
ATOM     14  O   TYR A   1      35.149  92.681   2.268  0.00  0.00    -0.287 OA
ENDBRANCH  10  13
ENDBRANCH   9  10
ENDBRANCH   1   9
TORSDOF 5
REMARK  Name = ../refined-set-2016/3fh7/3fh7_pocket.pdb
REMARK  252 active torsions:
REMARK  status: ('A' for Active; 'I' for Inactive)
REMARK    1  A    between atoms: _1  and  _3
REMARK    2  A    between atoms: _3  and  _4
REMARK    3  A    between atoms: _3  and  _6
REMARK    4  A    between atoms: _8  and  _10
REMARK    5  A    between atoms: _10  and  _11
REMARK    6  A    between atoms: _10  and  _13
REMARK    7  A    between atoms: _13  and  _14
REMARK    8  A    between atoms: _16  and  _18
REMARK    9  A    between atoms: _18  and  _19
REMARK   10  A    between atoms: _18  and  _21
REMARK   11  A    between atoms: _21  and  _22
REMARK   12  A    between atoms: _22  and  _23
REMARK   13  A    between atoms: _28  and  _30
REMARK   14  A    between atoms: _30  and  _31
REMARK   15  A    between atoms: _30  and  _33
REMARK   16  A    between atoms: _35  and  _37
REMARK   17  A    between atoms: _37  and  _38
REMARK   18  A    between atoms: _37  and  _40
REMARK   19  A    between atoms: _40  and  _41
REMARK   20  A    between atoms: _41  and  _42
REMARK   21  A    between atoms: _47  and  _49
REMARK   22  A    between atoms: _49  and  _50
REMARK   23  A    between atoms: _53  and  _55
REMARK   24  A    between atoms: _55  and  _56
REMARK   25  A    between atoms: _55  and  _58
REMARK   26  A    between atoms: _58  and  _59
REMARK   27  A    between atoms: _62  and  _64
REMARK   28  A    between atoms: _64  and  _65
REMARK   29  A    between atoms: _64  and  _67
REMARK   30  A    between atoms: _67  and  _68
REMARK   31  A    between atoms: _73  and  _75
REMARK   32  A    between atoms: _75  and  _76
REMARK   33  A    between atoms: _75  and  _78
REMARK   34  A    between atoms: _78  and  _79
REMARK   35  A    between atoms: _84  and  _85
REMARK   36  A    between atoms: _87  and  _89
REMARK   37  A    between atoms: _89  and  _90
REMARK   38  A    between atoms: _89  and  _92
REMARK   39  A    between atoms: _92  and  _93
REMARK   40  A    between atoms: _100  and  _101
REMARK   41  A    between atoms: _106  and  _108
REMARK   42  A    between atoms: _108  and  _109
REMARK   43  A    between atoms: _108  and  _111
REMARK   44  A    between atoms: _111  and  _112
REMARK   45  A    between atoms: _117  and  _118
REMARK   46  A    between atoms: _120  and  _122
REMARK   47  A    between atoms: _122  and  _123
REMARK   48  A    between atoms: _125  and  _127
REMARK   49  A    between atoms: _127  and  _128
REMARK   50  A    between atoms: _130  and  _132
REMARK   51  A    between atoms: _132  and  _133
REMARK   52  A    between atoms: _132  and  _135
REMARK   53  A    between atoms: _135  and  _136
REMARK   54  A    between atoms: _136  and  _137
REMARK   55  A    between atoms: _139  and  _141
REMARK   56  A    between atoms: _141  and  _142
REMARK   57  A    between atoms: _141  and  _144
REMARK   58  A    between atoms: _144  and  _145
REMARK   59  A    between atoms: _145  and  _146
REMARK   60  A    between atoms: _149  and  _151
REMARK   61  A    between atoms: _151  and  _152
REMARK   62  A    between atoms: _151  and  _154
REMARK   63  A    between atoms: _154  and  _155
REMARK   64  A    between atoms: _160  and  _162
REMARK   65  A    between atoms: _162  and  _163
REMARK   66  A    between atoms: _162  and  _165
REMARK   67  A    between atoms: _165  and  _166
REMARK   68  A    between atoms: _169  and  _171
REMARK   69  A    between atoms: _171  and  _172
REMARK   70  A    between atoms: _171  and  _174
REMARK   71  A    between atoms: _174  and  _175
REMARK   72  A    between atoms: _181  and  _183
REMARK   73  A    between atoms: _183  and  _184
REMARK   74  A    between atoms: _183  and  _186
REMARK   75  A    between atoms: _189  and  _191
REMARK   76  A    between atoms: _191  and  _192
REMARK   77  A    between atoms: _191  and  _194
REMARK   78  A    between atoms: _194  and  _195
REMARK   79  A    between atoms: _199  and  ZN_637
REMARK   80  A    between atoms: _200  and  _202
REMARK   81  A    between atoms: _202  and  _203
REMARK   82  A    between atoms: _202  and  _205
REMARK   83  A    between atoms: _205  and  _206
REMARK   84  A    between atoms: _206  and  _207
REMARK   85  A    between atoms: _210  and  _212
REMARK   86  A    between atoms: _212  and  _213
REMARK   87  A    between atoms: _212  and  _215
REMARK   88  A    between atoms: _215  and  _216
REMARK   89  A    between atoms: _219  and  _221
REMARK   90  A    between atoms: _221  and  _222
REMARK   91  A    between atoms: _221  and  _224
REMARK   92  A    between atoms: _224  and  _225
REMARK   93  A    between atoms: _229  and  ZN_637
REMARK   94  A    between atoms: _230  and  _232
REMARK   95  A    between atoms: _232  and  _233
REMARK   96  A    between atoms: _232  and  _235
REMARK   97  A    between atoms: _235  and  _236
REMARK   98  A    between atoms: _239  and  _241
REMARK   99  A    between atoms: _241  and  _242
REMARK  100  A    between atoms: _241  and  _244
REMARK  101  A    between atoms: _244  and  _245
REMARK  102  A    between atoms: _250  and  _252
REMARK  103  A    between atoms: _252  and  _253
REMARK  104  A    between atoms: _252  and  _255
REMARK  105  A    between atoms: _255  and  _256
REMARK  106  A    between atoms: _261  and  _263
REMARK  107  A    between atoms: _263  and  _264
REMARK  108  A    between atoms: _263  and  _266
REMARK  109  A    between atoms: _266  and  _267
REMARK  110  A    between atoms: _270  and  _272
REMARK  111  A    between atoms: _272  and  _273
REMARK  112  A    between atoms: _272  and  _275
REMARK  113  A    between atoms: _275  and  _276
REMARK  114  A    between atoms: _286  and  _288
REMARK  115  A    between atoms: _288  and  _289
REMARK  116  A    between atoms: _288  and  _291
REMARK  117  A    between atoms: _291  and  _292
REMARK  118  A    between atoms: _295  and  _297
REMARK  119  A    between atoms: _297  and  _298
REMARK  120  A    between atoms: _297  and  _300
REMARK  121  A    between atoms: _300  and  _301
REMARK  122  A    between atoms: _306  and  _308
REMARK  123  A    between atoms: _308  and  _309
REMARK  124  A    between atoms: _308  and  _311
REMARK  125  A    between atoms: _311  and  _312
REMARK  126  A    between atoms: _318  and  _320
REMARK  127  A    between atoms: _320  and  _321
REMARK  128  A    between atoms: _320  and  _323
REMARK  129  A    between atoms: _323  and  _324
REMARK  130  A    between atoms: _334  and  _336
REMARK  131  A    between atoms: _336  and  _337
REMARK  132  A    between atoms: _336  and  _339
REMARK  133  A    between atoms: _339  and  _340
REMARK  134  A    between atoms: _343  and  _345
REMARK  135  A    between atoms: _345  and  _346
REMARK  136  A    between atoms: _345  and  _348
REMARK  137  A    between atoms: _348  and  _349
REMARK  138  A    between atoms: _354  and  _356
REMARK  139  A    between atoms: _356  and  _357
REMARK  140  A    between atoms: _356  and  _359
REMARK  141  A    between atoms: _359  and  _360
REMARK  142  A    between atoms: _360  and  _361
REMARK  143  A    between atoms: _361  and  _362
REMARK  144  A    between atoms: _362  and  ZN_637
REMARK  145  A    between atoms: _364  and  _366
REMARK  146  A    between atoms: _366  and  _367
REMARK  147  A    between atoms: _366  and  _369
REMARK  148  A    between atoms: _369  and  _370
REMARK  149  A    between atoms: _373  and  _375
REMARK  150  A    between atoms: _375  and  _376
REMARK  151  A    between atoms: _375  and  _378
REMARK  152  A    between atoms: _381  and  _383
REMARK  153  A    between atoms: _383  and  _384
REMARK  154  A    between atoms: _383  and  _386
REMARK  155  A    between atoms: _386  and  _387
REMARK  156  A    between atoms: _387  and  _388
REMARK  157  A    between atoms: _391  and  _393
REMARK  158  A    between atoms: _393  and  _394
REMARK  159  A    between atoms: _393  and  _396
REMARK  160  A    between atoms: _396  and  _397
REMARK  161  A    between atoms: _404  and  _405
REMARK  162  A    between atoms: _410  and  _412
REMARK  163  A    between atoms: _412  and  _413
REMARK  164  A    between atoms: _412  and  _415
REMARK  165  A    between atoms: _415  and  _416
REMARK  166  A    between atoms: _422  and  _424
REMARK  167  A    between atoms: _424  and  _425
REMARK  168  A    between atoms: _424  and  _427
REMARK  169  A    between atoms: _427  and  _428
REMARK  170  A    between atoms: _431  and  _433
REMARK  171  A    between atoms: _433  and  _434
REMARK  172  A    between atoms: _433  and  _436
REMARK  173  A    between atoms: _436  and  _437
REMARK  174  A    between atoms: _437  and  _438
REMARK  175  A    between atoms: _438  and  _439
REMARK  176  A    between atoms: _439  and  _440
REMARK  177  A    between atoms: _444  and  _446
REMARK  178  A    between atoms: _446  and  _447
REMARK  179  A    between atoms: _446  and  _449
REMARK  180  A    between atoms: _449  and  _450
REMARK  181  A    between atoms: _453  and  _455
REMARK  182  A    between atoms: _455  and  _456
REMARK  183  A    between atoms: _455  and  _458
REMARK  184  A    between atoms: _461  and  _463
REMARK  185  A    between atoms: _463  and  _464
REMARK  186  A    between atoms: _463  and  _466
REMARK  187  A    between atoms: _469  and  _471
REMARK  188  A    between atoms: _471  and  _472
REMARK  189  A    between atoms: _471  and  _474
REMARK  190  A    between atoms: _474  and  _475
REMARK  191  A    between atoms: _478  and  _480
REMARK  192  A    between atoms: _480  and  _481
REMARK  193  A    between atoms: _480  and  _483
REMARK  194  A    between atoms: _483  and  _484
REMARK  195  A    between atoms: _487  and  _489
REMARK  196  A    between atoms: _489  and  _490
REMARK  197  A    between atoms: _489  and  _492
REMARK  198  A    between atoms: _492  and  _493
REMARK  199  A    between atoms: _496  and  _498
REMARK  200  A    between atoms: _498  and  _499
REMARK  201  A    between atoms: _498  and  _501
REMARK  202  A    between atoms: _501  and  _502
REMARK  203  A    between atoms: _506  and  _507
REMARK  204  A    between atoms: _512  and  _514
REMARK  205  A    between atoms: _514  and  _515
REMARK  206  A    between atoms: _514  and  _517
REMARK  207  A    between atoms: _517  and  _518
REMARK  208  A    between atoms: _521  and  _523
REMARK  209  A    between atoms: _523  and  _524
REMARK  210  A    between atoms: _523  and  _526
REMARK  211  A    between atoms: _529  and  _531
REMARK  212  A    between atoms: _531  and  _532
REMARK  213  A    between atoms: _535  and  _537
REMARK  214  A    between atoms: _537  and  _538
REMARK  215  A    between atoms: _537  and  _540
REMARK  216  A    between atoms: _540  and  _541
REMARK  217  A    between atoms: _546  and  _547
REMARK  218  A    between atoms: _549  and  _551
REMARK  219  A    between atoms: _551  and  _552
REMARK  220  A    between atoms: _551  and  _554
REMARK  221  A    between atoms: _554  and  _555
REMARK  222  A    between atoms: _557  and  _559
REMARK  223  A    between atoms: _559  and  _560
REMARK  224  A    between atoms: _559  and  _562
REMARK  225  A    between atoms: _562  and  _563
REMARK  226  A    between atoms: _565  and  _567
REMARK  227  A    between atoms: _567  and  _568
REMARK  228  A    between atoms: _567  and  _570
REMARK  229  A    between atoms: _574  and  _575
REMARK  230  A    between atoms: _580  and  _582
REMARK  231  A    between atoms: _582  and  _583
REMARK  232  A    between atoms: _582  and  _585
REMARK  233  A    between atoms: _585  and  _586
REMARK  234  A    between atoms: _591  and  _592
REMARK  235  A    between atoms: _594  and  _596
REMARK  236  A    between atoms: _596  and  _597
REMARK  237  A    between atoms: _596  and  _599
REMARK  238  A    between atoms: _599  and  _600
REMARK  239  A    between atoms: _600  and  _601
REMARK  240  A    between atoms: _601  and  _602
REMARK  241  A    between atoms: _611  and  _613
REMARK  242  A    between atoms: _613  and  _614
REMARK  243  A    between atoms: _613  and  _616
REMARK  244  A    between atoms: _616  and  _617
REMARK  245  A    between atoms: _617  and  _618
REMARK  246  A    between atoms: _620  and  _622
REMARK  247  A    between atoms: _622  and  _623
REMARK  248  A    between atoms: _622  and  _625
REMARK  249  A    between atoms: _628  and  _630
REMARK  250  A    between atoms: _630  and  _631
REMARK  251  A    between atoms: _630  and  _633
REMARK  252  A    between atoms: _633  and  _634
REMARK                            x       y       z     vdW  Elec       q    Type
REMARK                         _______ _______ _______ _____ _____    ______ ____
ROOT
ATOM      1  C   GLY A   4      38.616  79.164   1.982  0.00  0.00    +0.243 C 
ATOM      2  O   GLY A   4      39.791  78.998   2.332  0.00  0.00    -0.273 OA
ATOM      3  N   GLY A   5      38.173  80.307   1.474  0.00  0.00    -0.295 N 
ATOM      4  H   GLY A   5      37.153  80.428   1.312  0.00  0.00    +0.150 HD
ENDROOT
BRANCH   1   5
ATOM      5  CA  GLY A   4      37.560  78.065   2.167  0.00  0.00    +0.176 C 
BRANCH   5   8
ATOM      6  C   TYR A   3      36.259  79.147   3.912  0.00  0.00    +0.241 C 
ATOM      7  O   TYR A   3      37.228  79.175   4.692  0.00  0.00    -0.273 OA
ATOM      8  N   GLY A   4      36.316  78.621   2.694  0.00  0.00    -0.295 N 
ATOM      9  H   GLY A   4      35.459  78.605   2.104  0.00  0.00    +0.150 HD
BRANCH   6  10
ATOM     10  CA  TYR A   3      34.913  79.758   4.333  0.00  0.00    +0.153 C 
BRANCH  10  13
ATOM     11  C   PRO A   2      33.852  79.766   6.517  0.00  0.00    +0.241 C 
ATOM     12  O   PRO A   2      32.912  79.094   6.095  0.00  0.00    -0.273 OA
ATOM     13  N   TYR A   3      34.889  80.114   5.756  0.00  0.00    -0.297 N 
ATOM     14  H   TYR A   3      35.684  80.640   6.172  0.00  0.00    +0.150 HD
BRANCH  11  20
ATOM     15  C   PHE A   1      36.173  80.045   8.747  0.00  0.00    +0.242 C 
ATOM     16  N   PRO A   2      35.108  80.817   8.474  0.00  0.00    -0.272 N 
ATOM     17  CD  PRO A   2      34.930  82.198   8.964  0.00  0.00    +0.094 C 
ATOM     18  CG  PRO A   2      33.441  82.335   9.055  0.00  0.00    +0.024 C 
ATOM     19  CB  PRO A   2      32.810  81.350   8.123  0.00  0.00    +0.031 C 
ATOM     20  CA  PRO A   2      33.842  80.226   7.962  0.00  0.00    +0.152 C 
ATOM     21  O   PHE A   1      36.227  78.858   8.431  0.00  0.00    -0.273 OA
BRANCH  15  22
ATOM     22  CA  PHE A   1      37.318  80.683   9.550  0.00  0.00    +0.149 C 
BRANCH  22  23
ATOM     23  N   PHE A   1      37.556  79.853  10.723  0.00  0.00    -0.238 NA
ATOM     24  H   PHE A   1      38.512  79.492  10.916  0.00  0.00    +0.142 HD
ENDBRANCH  22  23
BRANCH  22  25
ATOM     25  CB  PHE A   1      38.597  80.843   8.727  0.00  0.00    +0.053 C 
BRANCH  25  26
ATOM     26  CG  PHE A   1      38.415  81.647   7.466  0.00  0.00    -0.020 A 
ATOM     27  CD2 PHE A   1      37.912  82.947   7.509  0.00  0.00    -0.004 A 
ATOM     28  CE2 PHE A   1      37.750  83.706   6.302  0.00  0.00    -0.000 A 
ATOM     29  CZ  PHE A   1      38.108  83.145   5.090  0.00  0.00    -0.000 A 
ATOM     30  CE1 PHE A   1      38.638  81.866   5.052  0.00  0.00    -0.000 A 
ATOM     31  CD1 PHE A   1      38.788  81.123   6.238  0.00  0.00    -0.004 A 
ENDBRANCH  25  26
ENDBRANCH  22  25
ENDBRANCH  15  22
ENDBRANCH  11  20
ENDBRANCH  10  13
BRANCH  10  32
ATOM     32  CB  TYR A   3      34.638  80.994   3.504  0.00  0.00    +0.055 C 
BRANCH  32  33
ATOM     33  CG  TYR A   3      33.280  81.616   3.743  0.00  0.00    -0.020 A 
ATOM     34  CD2 TYR A   3      33.109  82.623   4.697  0.00  0.00    -0.001 A 
ATOM     35  CE2 TYR A   3      31.848  83.215   4.914  0.00  0.00    +0.036 A 
ATOM     36  CZ  TYR A   3      30.759  82.786   4.172  0.00  0.00    +0.134 A 
ATOM     37  CE1 TYR A   3      30.908  81.779   3.218  0.00  0.00    +0.036 A 
ATOM     38  CD1 TYR A   3      32.168  81.202   3.009  0.00  0.00    -0.001 A 
BRANCH  36  39
ATOM     39  OH  TYR A   3      29.519  83.367   4.361  0.00  0.00    -0.506 OA
ATOM     40  HH  TYR A   3      29.576  84.335   4.164  0.00  0.00    +0.292 HD
ENDBRANCH  36  39
ENDBRANCH  32  33
ENDBRANCH  10  32
ENDBRANCH   6  10
ENDBRANCH   5   8
ENDBRANCH   1   5
BRANCH   3  41
ATOM     41  CA  GLY A   5      39.075  81.392   1.139  0.00  0.00    +0.176 C 
BRANCH  41  42
ATOM     42  C   GLY A   5      38.303  82.703   1.098  0.00  0.00    +0.243 C 
ATOM     43  O   GLY A   5      37.088  82.694   1.093  0.00  0.00    -0.273 OA
ATOM     44  N   MET A   6      39.017  83.822   1.067  0.00  0.00    -0.297 N 
ATOM     45  H   MET A   6      40.052  83.758   1.143  0.00  0.00    +0.150 HD
BRANCH  44  46
ATOM     46  CA  MET A   6      38.404  85.136   0.930  0.00  0.00    +0.149 C 
BRANCH  46  47
ATOM     47  C   MET A   6      39.440  86.009   0.242  0.00  0.00    +0.241 C 
ATOM     48  O   MET A   6      40.572  86.146   0.726  0.00  0.00    -0.273 OA
ATOM     49  N   GLU A   7      39.048  86.575  -0.897  0.00  0.00    -0.297 N 
ATOM     50  H   GLU A   7      38.042  86.533  -1.157  0.00  0.00    +0.150 HD
BRANCH  49  51
ATOM     51  CA  GLU A   7      39.984  87.257  -1.801  0.00  0.00    +0.149 C 
BRANCH  51  52
ATOM     52  C   GLU A   7      40.362  88.699  -1.359  0.00  0.00    +0.241 C 
ATOM     53  N   ASN A   8      40.718  88.886  -0.100  0.00  0.00    -0.298 N 
ATOM     54  H   ASN A   8      40.741  88.078   0.555  0.00  0.00    +0.150 HD
ATOM     55  O   GLU A   7      40.363  89.634  -2.161  0.00  0.00    -0.273 OA
BRANCH  53  56
ATOM     56  CA  ASN A   8      41.082  90.225   0.383  0.00  0.00    +0.146 C 
BRANCH  56  57
ATOM     57  C   ASN A   8      42.291  90.704  -0.374  0.00  0.00    +0.227 C 
ATOM     58  O   ASN A   8      43.268  89.974  -0.470  0.00  0.00    -0.286 OA
ENDBRANCH  56  57
BRANCH  56  59
ATOM     59  CB  ASN A   8      41.396  90.173   1.879  0.00  0.00    +0.112 C 
BRANCH  59  60
ATOM     60  CG  ASN A   8      40.221  89.729   2.693  0.00  0.00    +0.222 C 
ATOM     61  OD1 ASN A   8      40.341  88.853   3.562  0.00  0.00    -0.275 OA
ATOM     62  ND2 ASN A   8      39.067  90.323   2.431  0.00  0.00    -0.329 N 
ATOM     63 HD21 ASN A   8      38.214  90.059   2.964  0.00  0.00    +0.145 HD
ATOM     64 HD22 ASN A   8      39.014  91.053   1.692  0.00  0.00    +0.145 HD
ENDBRANCH  59  60
ENDBRANCH  56  59
ENDBRANCH  53  56
ENDBRANCH  51  52
BRANCH  51  65
ATOM     65  CB  GLU A   7      39.368  87.277  -3.190  0.00  0.00    +0.041 C 
BRANCH  65  66
ATOM     66  CG  GLU A   7      38.114  88.212  -3.276  0.00  0.00    +0.116 C 
BRANCH  66  67
ATOM     67  CD  GLU A   7      36.773  87.510  -3.022  0.00  0.00    +0.365 C 
ATOM     68  OE2 GLU A   7      36.720  86.429  -2.377  0.00  0.00    -0.246 OA
ATOM     69  OE1 GLU A   7      35.741  88.049  -3.489  0.00  0.00    -0.246 OA
ENDBRANCH  66  67
ENDBRANCH  65  66
ENDBRANCH  51  65
ENDBRANCH  49  51
ENDBRANCH  46  47
BRANCH  46  70
ATOM     70  CB  MET A   6      38.012  85.748   2.279  0.00  0.00    +0.041 C 
BRANCH  70  71
ATOM     71  CG  MET A   6      37.550  87.218   2.172  0.00  0.00    +0.060 C 
BRANCH  71  72
ATOM     72  SD  MET A   6      36.049  87.248   1.203  0.00  0.00    -0.139 S 
ATOM     73  CE  MET A   6      36.142  88.819   0.343  0.00  0.00    +0.069 C 
ENDBRANCH  71  72
ENDBRANCH  70  71
ENDBRANCH  46  70
ENDBRANCH  44  46
ENDBRANCH  41  42
ENDBRANCH   3  41
TORSDOF 28
REMARK  Name = ../refined-set-2016/3fh7/3fh7_pocket.pdb
REMARK  252 active torsions:
REMARK  status: ('A' for Active; 'I' for Inactive)
REMARK    1  A    between atoms: _1  and  _3
REMARK    2  A    between atoms: _3  and  _4
REMARK    3  A    between atoms: _3  and  _6
REMARK    4  A    between atoms: _8  and  _10
REMARK    5  A    between atoms: _10  and  _11
REMARK    6  A    between atoms: _10  and  _13
REMARK    7  A    between atoms: _13  and  _14
REMARK    8  A    between atoms: _16  and  _18
REMARK    9  A    between atoms: _18  and  _19
REMARK   10  A    between atoms: _18  and  _21
REMARK   11  A    between atoms: _21  and  _22
REMARK   12  A    between atoms: _22  and  _23
REMARK   13  A    between atoms: _28  and  _30
REMARK   14  A    between atoms: _30  and  _31
REMARK   15  A    between atoms: _30  and  _33
REMARK   16  A    between atoms: _35  and  _37
REMARK   17  A    between atoms: _37  and  _38
REMARK   18  A    between atoms: _37  and  _40
REMARK   19  A    between atoms: _40  and  _41
REMARK   20  A    between atoms: _41  and  _42
REMARK   21  A    between atoms: _47  and  _49
REMARK   22  A    between atoms: _49  and  _50
REMARK   23  A    between atoms: _53  and  _55
REMARK   24  A    between atoms: _55  and  _56
REMARK   25  A    between atoms: _55  and  _58
REMARK   26  A    between atoms: _58  and  _59
REMARK   27  A    between atoms: _62  and  _64
REMARK   28  A    between atoms: _64  and  _65
REMARK   29  A    between atoms: _64  and  _67
REMARK   30  A    between atoms: _67  and  _68
REMARK   31  A    between atoms: _73  and  _75
REMARK   32  A    between atoms: _75  and  _76
REMARK   33  A    between atoms: _75  and  _78
REMARK   34  A    between atoms: _78  and  _79
REMARK   35  A    between atoms: _84  and  _85
REMARK   36  A    between atoms: _87  and  _89
REMARK   37  A    between atoms: _89  and  _90
REMARK   38  A    between atoms: _89  and  _92
REMARK   39  A    between atoms: _92  and  _93
REMARK   40  A    between atoms: _100  and  _101
REMARK   41  A    between atoms: _106  and  _108
REMARK   42  A    between atoms: _108  and  _109
REMARK   43  A    between atoms: _108  and  _111
REMARK   44  A    between atoms: _111  and  _112
REMARK   45  A    between atoms: _117  and  _118
REMARK   46  A    between atoms: _120  and  _122
REMARK   47  A    between atoms: _122  and  _123
REMARK   48  A    between atoms: _125  and  _127
REMARK   49  A    between atoms: _127  and  _128
REMARK   50  A    between atoms: _130  and  _132
REMARK   51  A    between atoms: _132  and  _133
REMARK   52  A    between atoms: _132  and  _135
REMARK   53  A    between atoms: _135  and  _136
REMARK   54  A    between atoms: _136  and  _137
REMARK   55  A    between atoms: _139  and  _141
REMARK   56  A    between atoms: _141  and  _142
REMARK   57  A    between atoms: _141  and  _144
REMARK   58  A    between atoms: _144  and  _145
REMARK   59  A    between atoms: _145  and  _146
REMARK   60  A    between atoms: _149  and  _151
REMARK   61  A    between atoms: _151  and  _152
REMARK   62  A    between atoms: _151  and  _154
REMARK   63  A    between atoms: _154  and  _155
REMARK   64  A    between atoms: _160  and  _162
REMARK   65  A    between atoms: _162  and  _163
REMARK   66  A    between atoms: _162  and  _165
REMARK   67  A    between atoms: _165  and  _166
REMARK   68  A    between atoms: _169  and  _171
REMARK   69  A    between atoms: _171  and  _172
REMARK   70  A    between atoms: _171  and  _174
REMARK   71  A    between atoms: _174  and  _175
REMARK   72  A    between atoms: _181  and  _183
REMARK   73  A    between atoms: _183  and  _184
REMARK   74  A    between atoms: _183  and  _186
REMARK   75  A    between atoms: _189  and  _191
REMARK   76  A    between atoms: _191  and  _192
REMARK   77  A    between atoms: _191  and  _194
REMARK   78  A    between atoms: _194  and  _195
REMARK   79  A    between atoms: _199  and  ZN_637
REMARK   80  A    between atoms: _200  and  _202
REMARK   81  A    between atoms: _202  and  _203
REMARK   82  A    between atoms: _202  and  _205
REMARK   83  A    between atoms: _205  and  _206
REMARK   84  A    between atoms: _206  and  _207
REMARK   85  A    between atoms: _210  and  _212
REMARK   86  A    between atoms: _212  and  _213
REMARK   87  A    between atoms: _212  and  _215
REMARK   88  A    between atoms: _215  and  _216
REMARK   89  A    between atoms: _219  and  _221
REMARK   90  A    between atoms: _221  and  _222
REMARK   91  A    between atoms: _221  and  _224
REMARK   92  A    between atoms: _224  and  _225
REMARK   93  A    between atoms: _229  and  ZN_637
REMARK   94  A    between atoms: _230  and  _232
REMARK   95  A    between atoms: _232  and  _233
REMARK   96  A    between atoms: _232  and  _235
REMARK   97  A    between atoms: _235  and  _236
REMARK   98  A    between atoms: _239  and  _241
REMARK   99  A    between atoms: _241  and  _242
REMARK  100  A    between atoms: _241  and  _244
REMARK  101  A    between atoms: _244  and  _245
REMARK  102  A    between atoms: _250  and  _252
REMARK  103  A    between atoms: _252  and  _253
REMARK  104  A    between atoms: _252  and  _255
REMARK  105  A    between atoms: _255  and  _256
REMARK  106  A    between atoms: _261  and  _263
REMARK  107  A    between atoms: _263  and  _264
REMARK  108  A    between atoms: _263  and  _266
REMARK  109  A    between atoms: _266  and  _267
REMARK  110  A    between atoms: _270  and  _272
REMARK  111  A    between atoms: _272  and  _273
REMARK  112  A    between atoms: _272  and  _275
REMARK  113  A    between atoms: _275  and  _276
REMARK  114  A    between atoms: _286  and  _288
REMARK  115  A    between atoms: _288  and  _289
REMARK  116  A    between atoms: _288  and  _291
REMARK  117  A    between atoms: _291  and  _292
REMARK  118  A    between atoms: _295  and  _297
REMARK  119  A    between atoms: _297  and  _298
REMARK  120  A    between atoms: _297  and  _300
REMARK  121  A    between atoms: _300  and  _301
REMARK  122  A    between atoms: _306  and  _308
REMARK  123  A    between atoms: _308  and  _309
REMARK  124  A    between atoms: _308  and  _311
REMARK  125  A    between atoms: _311  and  _312
REMARK  126  A    between atoms: _318  and  _320
REMARK  127  A    between atoms: _320  and  _321
REMARK  128  A    between atoms: _320  and  _323
REMARK  129  A    between atoms: _323  and  _324
REMARK  130  A    between atoms: _334  and  _336
REMARK  131  A    between atoms: _336  and  _337
REMARK  132  A    between atoms: _336  and  _339
REMARK  133  A    between atoms: _339  and  _340
REMARK  134  A    between atoms: _343  and  _345
REMARK  135  A    between atoms: _345  and  _346
REMARK  136  A    between atoms: _345  and  _348
REMARK  137  A    between atoms: _348  and  _349
REMARK  138  A    between atoms: _354  and  _356
REMARK  139  A    between atoms: _356  and  _357
REMARK  140  A    between atoms: _356  and  _359
REMARK  141  A    between atoms: _359  and  _360
REMARK  142  A    between atoms: _360  and  _361
REMARK  143  A    between atoms: _361  and  _362
REMARK  144  A    between atoms: _362  and  ZN_637
REMARK  145  A    between atoms: _364  and  _366
REMARK  146  A    between atoms: _366  and  _367
REMARK  147  A    between atoms: _366  and  _369
REMARK  148  A    between atoms: _369  and  _370
REMARK  149  A    between atoms: _373  and  _375
REMARK  150  A    between atoms: _375  and  _376
REMARK  151  A    between atoms: _375  and  _378
REMARK  152  A    between atoms: _381  and  _383
REMARK  153  A    between atoms: _383  and  _384
REMARK  154  A    between atoms: _383  and  _386
REMARK  155  A    between atoms: _386  and  _387
REMARK  156  A    between atoms: _387  and  _388
REMARK  157  A    between atoms: _391  and  _393
REMARK  158  A    between atoms: _393  and  _394
REMARK  159  A    between atoms: _393  and  _396
REMARK  160  A    between atoms: _396  and  _397
REMARK  161  A    between atoms: _404  and  _405
REMARK  162  A    between atoms: _410  and  _412
REMARK  163  A    between atoms: _412  and  _413
REMARK  164  A    between atoms: _412  and  _415
REMARK  165  A    between atoms: _415  and  _416
REMARK  166  A    between atoms: _422  and  _424
REMARK  167  A    between atoms: _424  and  _425
REMARK  168  A    between atoms: _424  and  _427
REMARK  169  A    between atoms: _427  and  _428
REMARK  170  A    between atoms: _431  and  _433
REMARK  171  A    between atoms: _433  and  _434
REMARK  172  A    between atoms: _433  and  _436
REMARK  173  A    between atoms: _436  and  _437
REMARK  174  A    between atoms: _437  and  _438
REMARK  175  A    between atoms: _438  and  _439
REMARK  176  A    between atoms: _439  and  _440
REMARK  177  A    between atoms: _444  and  _446
REMARK  178  A    between atoms: _446  and  _447
REMARK  179  A    between atoms: _446  and  _449
REMARK  180  A    between atoms: _449  and  _450
REMARK  181  A    between atoms: _453  and  _455
REMARK  182  A    between atoms: _455  and  _456
REMARK  183  A    between atoms: _455  and  _458
REMARK  184  A    between atoms: _461  and  _463
REMARK  185  A    between atoms: _463  and  _464
REMARK  186  A    between atoms: _463  and  _466
REMARK  187  A    between atoms: _469  and  _471
REMARK  188  A    between atoms: _471  and  _472
REMARK  189  A    between atoms: _471  and  _474
REMARK  190  A    between atoms: _474  and  _475
REMARK  191  A    between atoms: _478  and  _480
REMARK  192  A    between atoms: _480  and  _481
REMARK  193  A    between atoms: _480  and  _483
REMARK  194  A    between atoms: _483  and  _484
REMARK  195  A    between atoms: _487  and  _489
REMARK  196  A    between atoms: _489  and  _490
REMARK  197  A    between atoms: _489  and  _492
REMARK  198  A    between atoms: _492  and  _493
REMARK  199  A    between atoms: _496  and  _498
REMARK  200  A    between atoms: _498  and  _499
REMARK  201  A    between atoms: _498  and  _501
REMARK  202  A    between atoms: _501  and  _502
REMARK  203  A    between atoms: _506  and  _507
REMARK  204  A    between atoms: _512  and  _514
REMARK  205  A    between atoms: _514  and  _515
REMARK  206  A    between atoms: _514  and  _517
REMARK  207  A    between atoms: _517  and  _518
REMARK  208  A    between atoms: _521  and  _523
REMARK  209  A    between atoms: _523  and  _524
REMARK  210  A    between atoms: _523  and  _526
REMARK  211  A    between atoms: _529  and  _531
REMARK  212  A    between atoms: _531  and  _532
REMARK  213  A    between atoms: _535  and  _537
REMARK  214  A    between atoms: _537  and  _538
REMARK  215  A    between atoms: _537  and  _540
REMARK  216  A    between atoms: _540  and  _541
REMARK  217  A    between atoms: _546  and  _547
REMARK  218  A    between atoms: _549  and  _551
REMARK  219  A    between atoms: _551  and  _552
REMARK  220  A    between atoms: _551  and  _554
REMARK  221  A    between atoms: _554  and  _555
REMARK  222  A    between atoms: _557  and  _559
REMARK  223  A    between atoms: _559  and  _560
REMARK  224  A    between atoms: _559  and  _562
REMARK  225  A    between atoms: _562  and  _563
REMARK  226  A    between atoms: _565  and  _567
REMARK  227  A    between atoms: _567  and  _568
REMARK  228  A    between atoms: _567  and  _570
REMARK  229  A    between atoms: _574  and  _575
REMARK  230  A    between atoms: _580  and  _582
REMARK  231  A    between atoms: _582  and  _583
REMARK  232  A    between atoms: _582  and  _585
REMARK  233  A    between atoms: _585  and  _586
REMARK  234  A    between atoms: _591  and  _592
REMARK  235  A    between atoms: _594  and  _596
REMARK  236  A    between atoms: _596  and  _597
REMARK  237  A    between atoms: _596  and  _599
REMARK  238  A    between atoms: _599  and  _600
REMARK  239  A    between atoms: _600  and  _601
REMARK  240  A    between atoms: _601  and  _602
REMARK  241  A    between atoms: _611  and  _613
REMARK  242  A    between atoms: _613  and  _614
REMARK  243  A    between atoms: _613  and  _616
REMARK  244  A    between atoms: _616  and  _617
REMARK  245  A    between atoms: _617  and  _618
REMARK  246  A    between atoms: _620  and  _622
REMARK  247  A    between atoms: _622  and  _623
REMARK  248  A    between atoms: _622  and  _625
REMARK  249  A    between atoms: _628  and  _630
REMARK  250  A    between atoms: _630  and  _631
REMARK  251  A    between atoms: _630  and  _633
REMARK  252  A    between atoms: _633  and  _634
REMARK                            x       y       z     vdW  Elec       q    Type
REMARK                         _______ _______ _______ _____ _____    ______ ____
ROOT
ATOM      1  C   THR A   1      44.016  85.462   2.015  0.00  0.00    +0.241 C 
ATOM      2  O   THR A   1      45.064  85.131   2.571  0.00  0.00    -0.274 OA
ATOM      3  N   PHE A   2      42.805  85.272   2.554  0.00  0.00    -0.298 N 
ATOM      4  H   PHE A   2      41.978  85.706   2.096  0.00  0.00    +0.150 HD
ENDROOT
BRANCH   1   5
ATOM      5  CA  THR A   1      44.073  86.202   0.689  0.00  0.00    +0.172 C 
BRANCH   5   6
ATOM      6  N   THR A   1      45.158  87.205   0.702  0.00  0.00    -0.236 NA
ATOM      7  H   THR A   1      45.984  87.084   0.081  0.00  0.00    +0.142 HD
ENDBRANCH   5   6
BRANCH   5   8
ATOM      8  CB  THR A   1      44.238  85.221  -0.472  0.00  0.00    +0.135 C 
ATOM      9  CG2 THR A   1      43.419  83.900  -0.253  0.00  0.00    +0.034 C 
BRANCH   8  10
ATOM     10  OG1 THR A   1      43.795  85.858  -1.671  0.00  0.00    -0.383 OA
ATOM     11  HG1 THR A   1      44.340  86.669  -1.833  0.00  0.00    +0.210 HD
ENDBRANCH   8  10
ENDBRANCH   5   8
ENDBRANCH   1   5
BRANCH   3  12
ATOM     12  CA  PHE A   2      42.606  84.476   3.763  0.00  0.00    +0.141 C 
BRANCH  12  13
ATOM     13  C   PHE A   2      42.207  83.058   3.318  0.00  0.00    +0.227 C 
ATOM     14  O   PHE A   2      41.379  82.908   2.425  0.00  0.00    -0.286 OA
ENDBRANCH  12  13
BRANCH  12  15
ATOM     15  CB  PHE A   2      41.463  85.051   4.603  0.00  0.00    +0.054 C 
BRANCH  15  16
ATOM     16  CG  PHE A   2      41.779  86.353   5.344  0.00  0.00    -0.020 A 
ATOM     17  CD2 PHE A   2      40.902  86.809   6.346  0.00  0.00    -0.004 A 
ATOM     18  CE2 PHE A   2      41.150  88.024   7.040  0.00  0.00    -0.000 A 
ATOM     19  CZ  PHE A   2      42.251  88.785   6.712  0.00  0.00    -0.000 A 
ATOM     20  CE1 PHE A   2      43.121  88.360   5.705  0.00  0.00    -0.000 A 
ATOM     21  CD1 PHE A   2      42.872  87.153   5.011  0.00  0.00    -0.004 A 
ENDBRANCH  15  16
ENDBRANCH  12  15
ENDBRANCH   3  12
TORSDOF 8
REMARK  Name = ../refined-set-2016/3fh7/3fh7_pocket.pdb
REMARK  252 active torsions:
REMARK  status: ('A' for Active; 'I' for Inactive)
REMARK    1  A    between atoms: _1  and  _3
REMARK    2  A    between atoms: _3  and  _4
REMARK    3  A    between atoms: _3  and  _6
REMARK    4  A    between atoms: _8  and  _10
REMARK    5  A    between atoms: _10  and  _11
REMARK    6  A    between atoms: _10  and  _13
REMARK    7  A    between atoms: _13  and  _14
REMARK    8  A    between atoms: _16  and  _18
REMARK    9  A    between atoms: _18  and  _19
REMARK   10  A    between atoms: _18  and  _21
REMARK   11  A    between atoms: _21  and  _22
REMARK   12  A    between atoms: _22  and  _23
REMARK   13  A    between atoms: _28  and  _30
REMARK   14  A    between atoms: _30  and  _31
REMARK   15  A    between atoms: _30  and  _33
REMARK   16  A    between atoms: _35  and  _37
REMARK   17  A    between atoms: _37  and  _38
REMARK   18  A    between atoms: _37  and  _40
REMARK   19  A    between atoms: _40  and  _41
REMARK   20  A    between atoms: _41  and  _42
REMARK   21  A    between atoms: _47  and  _49
REMARK   22  A    between atoms: _49  and  _50
REMARK   23  A    between atoms: _53  and  _55
REMARK   24  A    between atoms: _55  and  _56
REMARK   25  A    between atoms: _55  and  _58
REMARK   26  A    between atoms: _58  and  _59
REMARK   27  A    between atoms: _62  and  _64
REMARK   28  A    between atoms: _64  and  _65
REMARK   29  A    between atoms: _64  and  _67
REMARK   30  A    between atoms: _67  and  _68
REMARK   31  A    between atoms: _73  and  _75
REMARK   32  A    between atoms: _75  and  _76
REMARK   33  A    between atoms: _75  and  _78
REMARK   34  A    between atoms: _78  and  _79
REMARK   35  A    between atoms: _84  and  _85
REMARK   36  A    between atoms: _87  and  _89
REMARK   37  A    between atoms: _89  and  _90
REMARK   38  A    between atoms: _89  and  _92
REMARK   39  A    between atoms: _92  and  _93
REMARK   40  A    between atoms: _100  and  _101
REMARK   41  A    between atoms: _106  and  _108
REMARK   42  A    between atoms: _108  and  _109
REMARK   43  A    between atoms: _108  and  _111
REMARK   44  A    between atoms: _111  and  _112
REMARK   45  A    between atoms: _117  and  _118
REMARK   46  A    between atoms: _120  and  _122
REMARK   47  A    between atoms: _122  and  _123
REMARK   48  A    between atoms: _125  and  _127
REMARK   49  A    between atoms: _127  and  _128
REMARK   50  A    between atoms: _130  and  _132
REMARK   51  A    between atoms: _132  and  _133
REMARK   52  A    between atoms: _132  and  _135
REMARK   53  A    between atoms: _135  and  _136
REMARK   54  A    between atoms: _136  and  _137
REMARK   55  A    between atoms: _139  and  _141
REMARK   56  A    between atoms: _141  and  _142
REMARK   57  A    between atoms: _141  and  _144
REMARK   58  A    between atoms: _144  and  _145
REMARK   59  A    between atoms: _145  and  _146
REMARK   60  A    between atoms: _149  and  _151
REMARK   61  A    between atoms: _151  and  _152
REMARK   62  A    between atoms: _151  and  _154
REMARK   63  A    between atoms: _154  and  _155
REMARK   64  A    between atoms: _160  and  _162
REMARK   65  A    between atoms: _162  and  _163
REMARK   66  A    between atoms: _162  and  _165
REMARK   67  A    between atoms: _165  and  _166
REMARK   68  A    between atoms: _169  and  _171
REMARK   69  A    between atoms: _171  and  _172
REMARK   70  A    between atoms: _171  and  _174
REMARK   71  A    between atoms: _174  and  _175
REMARK   72  A    between atoms: _181  and  _183
REMARK   73  A    between atoms: _183  and  _184
REMARK   74  A    between atoms: _183  and  _186
REMARK   75  A    between atoms: _189  and  _191
REMARK   76  A    between atoms: _191  and  _192
REMARK   77  A    between atoms: _191  and  _194
REMARK   78  A    between atoms: _194  and  _195
REMARK   79  A    between atoms: _199  and  ZN_637
REMARK   80  A    between atoms: _200  and  _202
REMARK   81  A    between atoms: _202  and  _203
REMARK   82  A    between atoms: _202  and  _205
REMARK   83  A    between atoms: _205  and  _206
REMARK   84  A    between atoms: _206  and  _207
REMARK   85  A    between atoms: _210  and  _212
REMARK   86  A    between atoms: _212  and  _213
REMARK   87  A    between atoms: _212  and  _215
REMARK   88  A    between atoms: _215  and  _216
REMARK   89  A    between atoms: _219  and  _221
REMARK   90  A    between atoms: _221  and  _222
REMARK   91  A    between atoms: _221  and  _224
REMARK   92  A    between atoms: _224  and  _225
REMARK   93  A    between atoms: _229  and  ZN_637
REMARK   94  A    between atoms: _230  and  _232
REMARK   95  A    between atoms: _232  and  _233
REMARK   96  A    between atoms: _232  and  _235
REMARK   97  A    between atoms: _235  and  _236
REMARK   98  A    between atoms: _239  and  _241
REMARK   99  A    between atoms: _241  and  _242
REMARK  100  A    between atoms: _241  and  _244
REMARK  101  A    between atoms: _244  and  _245
REMARK  102  A    between atoms: _250  and  _252
REMARK  103  A    between atoms: _252  and  _253
REMARK  104  A    between atoms: _252  and  _255
REMARK  105  A    between atoms: _255  and  _256
REMARK  106  A    between atoms: _261  and  _263
REMARK  107  A    between atoms: _263  and  _264
REMARK  108  A    between atoms: _263  and  _266
REMARK  109  A    between atoms: _266  and  _267
REMARK  110  A    between atoms: _270  and  _272
REMARK  111  A    between atoms: _272  and  _273
REMARK  112  A    between atoms: _272  and  _275
REMARK  113  A    between atoms: _275  and  _276
REMARK  114  A    between atoms: _286  and  _288
REMARK  115  A    between atoms: _288  and  _289
REMARK  116  A    between atoms: _288  and  _291
REMARK  117  A    between atoms: _291  and  _292
REMARK  118  A    between atoms: _295  and  _297
REMARK  119  A    between atoms: _297  and  _298
REMARK  120  A    between atoms: _297  and  _300
REMARK  121  A    between atoms: _300  and  _301
REMARK  122  A    between atoms: _306  and  _308
REMARK  123  A    between atoms: _308  and  _309
REMARK  124  A    between atoms: _308  and  _311
REMARK  125  A    between atoms: _311  and  _312
REMARK  126  A    between atoms: _318  and  _320
REMARK  127  A    between atoms: _320  and  _321
REMARK  128  A    between atoms: _320  and  _323
REMARK  129  A    between atoms: _323  and  _324
REMARK  130  A    between atoms: _334  and  _336
REMARK  131  A    between atoms: _336  and  _337
REMARK  132  A    between atoms: _336  and  _339
REMARK  133  A    between atoms: _339  and  _340
REMARK  134  A    between atoms: _343  and  _345
REMARK  135  A    between atoms: _345  and  _346
REMARK  136  A    between atoms: _345  and  _348
REMARK  137  A    between atoms: _348  and  _349
REMARK  138  A    between atoms: _354  and  _356
REMARK  139  A    between atoms: _356  and  _357
REMARK  140  A    between atoms: _356  and  _359
REMARK  141  A    between atoms: _359  and  _360
REMARK  142  A    between atoms: _360  and  _361
REMARK  143  A    between atoms: _361  and  _362
REMARK  144  A    between atoms: _362  and  ZN_637
REMARK  145  A    between atoms: _364  and  _366
REMARK  146  A    between atoms: _366  and  _367
REMARK  147  A    between atoms: _366  and  _369
REMARK  148  A    between atoms: _369  and  _370
REMARK  149  A    between atoms: _373  and  _375
REMARK  150  A    between atoms: _375  and  _376
REMARK  151  A    between atoms: _375  and  _378
REMARK  152  A    between atoms: _381  and  _383
REMARK  153  A    between atoms: _383  and  _384
REMARK  154  A    between atoms: _383  and  _386
REMARK  155  A    between atoms: _386  and  _387
REMARK  156  A    between atoms: _387  and  _388
REMARK  157  A    between atoms: _391  and  _393
REMARK  158  A    between atoms: _393  and  _394
REMARK  159  A    between atoms: _393  and  _396
REMARK  160  A    between atoms: _396  and  _397
REMARK  161  A    between atoms: _404  and  _405
REMARK  162  A    between atoms: _410  and  _412
REMARK  163  A    between atoms: _412  and  _413
REMARK  164  A    between atoms: _412  and  _415
REMARK  165  A    between atoms: _415  and  _416
REMARK  166  A    between atoms: _422  and  _424
REMARK  167  A    between atoms: _424  and  _425
REMARK  168  A    between atoms: _424  and  _427
REMARK  169  A    between atoms: _427  and  _428
REMARK  170  A    between atoms: _431  and  _433
REMARK  171  A    between atoms: _433  and  _434
REMARK  172  A    between atoms: _433  and  _436
REMARK  173  A    between atoms: _436  and  _437
REMARK  174  A    between atoms: _437  and  _438
REMARK  175  A    between atoms: _438  and  _439
REMARK  176  A    between atoms: _439  and  _440
REMARK  177  A    between atoms: _444  and  _446
REMARK  178  A    between atoms: _446  and  _447
REMARK  179  A    between atoms: _446  and  _449
REMARK  180  A    between atoms: _449  and  _450
REMARK  181  A    between atoms: _453  and  _455
REMARK  182  A    between atoms: _455  and  _456
REMARK  183  A    between atoms: _455  and  _458
REMARK  184  A    between atoms: _461  and  _463
REMARK  185  A    between atoms: _463  and  _464
REMARK  186  A    between atoms: _463  and  _466
REMARK  187  A    between atoms: _469  and  _471
REMARK  188  A    between atoms: _471  and  _472
REMARK  189  A    between atoms: _471  and  _474
REMARK  190  A    between atoms: _474  and  _475
REMARK  191  A    between atoms: _478  and  _480
REMARK  192  A    between atoms: _480  and  _481
REMARK  193  A    between atoms: _480  and  _483
REMARK  194  A    between atoms: _483  and  _484
REMARK  195  A    between atoms: _487  and  _489
REMARK  196  A    between atoms: _489  and  _490
REMARK  197  A    between atoms: _489  and  _492
REMARK  198  A    between atoms: _492  and  _493
REMARK  199  A    between atoms: _496  and  _498
REMARK  200  A    between atoms: _498  and  _499
REMARK  201  A    between atoms: _498  and  _501
REMARK  202  A    between atoms: _501  and  _502
REMARK  203  A    between atoms: _506  and  _507
REMARK  204  A    between atoms: _512  and  _514
REMARK  205  A    between atoms: _514  and  _515
REMARK  206  A    between atoms: _514  and  _517
REMARK  207  A    between atoms: _517  and  _518
REMARK  208  A    between atoms: _521  and  _523
REMARK  209  A    between atoms: _523  and  _524
REMARK  210  A    between atoms: _523  and  _526
REMARK  211  A    between atoms: _529  and  _531
REMARK  212  A    between atoms: _531  and  _532
REMARK  213  A    between atoms: _535  and  _537
REMARK  214  A    between atoms: _537  and  _538
REMARK  215  A    between atoms: _537  and  _540
REMARK  216  A    between atoms: _540  and  _541
REMARK  217  A    between atoms: _546  and  _547
REMARK  218  A    between atoms: _549  and  _551
REMARK  219  A    between atoms: _551  and  _552
REMARK  220  A    between atoms: _551  and  _554
REMARK  221  A    between atoms: _554  and  _555
REMARK  222  A    between atoms: _557  and  _559
REMARK  223  A    between atoms: _559  and  _560
REMARK  224  A    between atoms: _559  and  _562
REMARK  225  A    between atoms: _562  and  _563
REMARK  226  A    between atoms: _565  and  _567
REMARK  227  A    between atoms: _567  and  _568
REMARK  228  A    between atoms: _567  and  _570
REMARK  229  A    between atoms: _574  and  _575
REMARK  230  A    between atoms: _580  and  _582
REMARK  231  A    between atoms: _582  and  _583
REMARK  232  A    between atoms: _582  and  _585
REMARK  233  A    between atoms: _585  and  _586
REMARK  234  A    between atoms: _591  and  _592
REMARK  235  A    between atoms: _594  and  _596
REMARK  236  A    between atoms: _596  and  _597
REMARK  237  A    between atoms: _596  and  _599
REMARK  238  A    between atoms: _599  and  _600
REMARK  239  A    between atoms: _600  and  _601
REMARK  240  A    between atoms: _601  and  _602
REMARK  241  A    between atoms: _611  and  _613
REMARK  242  A    between atoms: _613  and  _614
REMARK  243  A    between atoms: _613  and  _616
REMARK  244  A    between atoms: _616  and  _617
REMARK  245  A    between atoms: _617  and  _618
REMARK  246  A    between atoms: _620  and  _622
REMARK  247  A    between atoms: _622  and  _623
REMARK  248  A    between atoms: _622  and  _625
REMARK  249  A    between atoms: _628  and  _630
REMARK  250  A    between atoms: _630  and  _631
REMARK  251  A    between atoms: _630  and  _633
REMARK  252  A    between atoms: _633  and  _634
REMARK                            x       y       z     vdW  Elec       q    Type
REMARK                         _______ _______ _______ _____ _____    ______ ____
ROOT
ATOM      1  CA  VAL A   1      40.939  77.306  -3.677  0.00  0.00    +0.133 C 
ENDROOT
BRANCH   1   2
ATOM      2  CB  VAL A   1      40.728  76.874  -2.194  0.00  0.00    +0.023 C 
ATOM      3  CG2 VAL A   1      40.431  78.085  -1.303  0.00  0.00    +0.002 C 
ATOM      4  CG1 VAL A   1      39.596  75.815  -2.113  0.00  0.00    +0.002 C 
ENDBRANCH   1   2
BRANCH   1   5
ATOM      5  N   VAL A   1      41.454  76.207  -4.478  0.00  0.00    -0.239 NA
ATOM      6  H   VAL A   1      41.808  75.352  -4.004  0.00  0.00    +0.142 HD
ENDBRANCH   1   5
BRANCH   1   7
ATOM      7  C   VAL A   1      41.871  78.531  -3.826  0.00  0.00    +0.224 C 
ATOM      8  O   VAL A   1      41.402  79.660  -3.968  0.00  0.00    -0.287 OA
ENDBRANCH   1   7
TORSDOF 3
REMARK  Name = ../refined-set-2016/3fh7/3fh7_pocket.pdb
REMARK  252 active torsions:
REMARK  status: ('A' for Active; 'I' for Inactive)
REMARK    1  A    between atoms: _1  and  _3
REMARK    2  A    between atoms: _3  and  _4
REMARK    3  A    between atoms: _3  and  _6
REMARK    4  A    between atoms: _8  and  _10
REMARK    5  A    between atoms: _10  and  _11
REMARK    6  A    between atoms: _10  and  _13
REMARK    7  A    between atoms: _13  and  _14
REMARK    8  A    between atoms: _16  and  _18
REMARK    9  A    between atoms: _18  and  _19
REMARK   10  A    between atoms: _18  and  _21
REMARK   11  A    between atoms: _21  and  _22
REMARK   12  A    between atoms: _22  and  _23
REMARK   13  A    between atoms: _28  and  _30
REMARK   14  A    between atoms: _30  and  _31
REMARK   15  A    between atoms: _30  and  _33
REMARK   16  A    between atoms: _35  and  _37
REMARK   17  A    between atoms: _37  and  _38
REMARK   18  A    between atoms: _37  and  _40
REMARK   19  A    between atoms: _40  and  _41
REMARK   20  A    between atoms: _41  and  _42
REMARK   21  A    between atoms: _47  and  _49
REMARK   22  A    between atoms: _49  and  _50
REMARK   23  A    between atoms: _53  and  _55
REMARK   24  A    between atoms: _55  and  _56
REMARK   25  A    between atoms: _55  and  _58
REMARK   26  A    between atoms: _58  and  _59
REMARK   27  A    between atoms: _62  and  _64
REMARK   28  A    between atoms: _64  and  _65
REMARK   29  A    between atoms: _64  and  _67
REMARK   30  A    between atoms: _67  and  _68
REMARK   31  A    between atoms: _73  and  _75
REMARK   32  A    between atoms: _75  and  _76
REMARK   33  A    between atoms: _75  and  _78
REMARK   34  A    between atoms: _78  and  _79
REMARK   35  A    between atoms: _84  and  _85
REMARK   36  A    between atoms: _87  and  _89
REMARK   37  A    between atoms: _89  and  _90
REMARK   38  A    between atoms: _89  and  _92
REMARK   39  A    between atoms: _92  and  _93
REMARK   40  A    between atoms: _100  and  _101
REMARK   41  A    between atoms: _106  and  _108
REMARK   42  A    between atoms: _108  and  _109
REMARK   43  A    between atoms: _108  and  _111
REMARK   44  A    between atoms: _111  and  _112
REMARK   45  A    between atoms: _117  and  _118
REMARK   46  A    between atoms: _120  and  _122
REMARK   47  A    between atoms: _122  and  _123
REMARK   48  A    between atoms: _125  and  _127
REMARK   49  A    between atoms: _127  and  _128
REMARK   50  A    between atoms: _130  and  _132
REMARK   51  A    between atoms: _132  and  _133
REMARK   52  A    between atoms: _132  and  _135
REMARK   53  A    between atoms: _135  and  _136
REMARK   54  A    between atoms: _136  and  _137
REMARK   55  A    between atoms: _139  and  _141
REMARK   56  A    between atoms: _141  and  _142
REMARK   57  A    between atoms: _141  and  _144
REMARK   58  A    between atoms: _144  and  _145
REMARK   59  A    between atoms: _145  and  _146
REMARK   60  A    between atoms: _149  and  _151
REMARK   61  A    between atoms: _151  and  _152
REMARK   62  A    between atoms: _151  and  _154
REMARK   63  A    between atoms: _154  and  _155
REMARK   64  A    between atoms: _160  and  _162
REMARK   65  A    between atoms: _162  and  _163
REMARK   66  A    between atoms: _162  and  _165
REMARK   67  A    between atoms: _165  and  _166
REMARK   68  A    between atoms: _169  and  _171
REMARK   69  A    between atoms: _171  and  _172
REMARK   70  A    between atoms: _171  and  _174
REMARK   71  A    between atoms: _174  and  _175
REMARK   72  A    between atoms: _181  and  _183
REMARK   73  A    between atoms: _183  and  _184
REMARK   74  A    between atoms: _183  and  _186
REMARK   75  A    between atoms: _189  and  _191
REMARK   76  A    between atoms: _191  and  _192
REMARK   77  A    between atoms: _191  and  _194
REMARK   78  A    between atoms: _194  and  _195
REMARK   79  A    between atoms: _199  and  ZN_637
REMARK   80  A    between atoms: _200  and  _202
REMARK   81  A    between atoms: _202  and  _203
REMARK   82  A    between atoms: _202  and  _205
REMARK   83  A    between atoms: _205  and  _206
REMARK   84  A    between atoms: _206  and  _207
REMARK   85  A    between atoms: _210  and  _212
REMARK   86  A    between atoms: _212  and  _213
REMARK   87  A    between atoms: _212  and  _215
REMARK   88  A    between atoms: _215  and  _216
REMARK   89  A    between atoms: _219  and  _221
REMARK   90  A    between atoms: _221  and  _222
REMARK   91  A    between atoms: _221  and  _224
REMARK   92  A    between atoms: _224  and  _225
REMARK   93  A    between atoms: _229  and  ZN_637
REMARK   94  A    between atoms: _230  and  _232
REMARK   95  A    between atoms: _232  and  _233
REMARK   96  A    between atoms: _232  and  _235
REMARK   97  A    between atoms: _235  and  _236
REMARK   98  A    between atoms: _239  and  _241
REMARK   99  A    between atoms: _241  and  _242
REMARK  100  A    between atoms: _241  and  _244
REMARK  101  A    between atoms: _244  and  _245
REMARK  102  A    between atoms: _250  and  _252
REMARK  103  A    between atoms: _252  and  _253
REMARK  104  A    between atoms: _252  and  _255
REMARK  105  A    between atoms: _255  and  _256
REMARK  106  A    between atoms: _261  and  _263
REMARK  107  A    between atoms: _263  and  _264
REMARK  108  A    between atoms: _263  and  _266
REMARK  109  A    between atoms: _266  and  _267
REMARK  110  A    between atoms: _270  and  _272
REMARK  111  A    between atoms: _272  and  _273
REMARK  112  A    between atoms: _272  and  _275
REMARK  113  A    between atoms: _275  and  _276
REMARK  114  A    between atoms: _286  and  _288
REMARK  115  A    between atoms: _288  and  _289
REMARK  116  A    between atoms: _288  and  _291
REMARK  117  A    between atoms: _291  and  _292
REMARK  118  A    between atoms: _295  and  _297
REMARK  119  A    between atoms: _297  and  _298
REMARK  120  A    between atoms: _297  and  _300
REMARK  121  A    between atoms: _300  and  _301
REMARK  122  A    between atoms: _306  and  _308
REMARK  123  A    between atoms: _308  and  _309
REMARK  124  A    between atoms: _308  and  _311
REMARK  125  A    between atoms: _311  and  _312
REMARK  126  A    between atoms: _318  and  _320
REMARK  127  A    between atoms: _320  and  _321
REMARK  128  A    between atoms: _320  and  _323
REMARK  129  A    between atoms: _323  and  _324
REMARK  130  A    between atoms: _334  and  _336
REMARK  131  A    between atoms: _336  and  _337
REMARK  132  A    between atoms: _336  and  _339
REMARK  133  A    between atoms: _339  and  _340
REMARK  134  A    between atoms: _343  and  _345
REMARK  135  A    between atoms: _345  and  _346
REMARK  136  A    between atoms: _345  and  _348
REMARK  137  A    between atoms: _348  and  _349
REMARK  138  A    between atoms: _354  and  _356
REMARK  139  A    between atoms: _356  and  _357
REMARK  140  A    between atoms: _356  and  _359
REMARK  141  A    between atoms: _359  and  _360
REMARK  142  A    between atoms: _360  and  _361
REMARK  143  A    between atoms: _361  and  _362
REMARK  144  A    between atoms: _362  and  ZN_637
REMARK  145  A    between atoms: _364  and  _366
REMARK  146  A    between atoms: _366  and  _367
REMARK  147  A    between atoms: _366  and  _369
REMARK  148  A    between atoms: _369  and  _370
REMARK  149  A    between atoms: _373  and  _375
REMARK  150  A    between atoms: _375  and  _376
REMARK  151  A    between atoms: _375  and  _378
REMARK  152  A    between atoms: _381  and  _383
REMARK  153  A    between atoms: _383  and  _384
REMARK  154  A    between atoms: _383  and  _386
REMARK  155  A    between atoms: _386  and  _387
REMARK  156  A    between atoms: _387  and  _388
REMARK  157  A    between atoms: _391  and  _393
REMARK  158  A    between atoms: _393  and  _394
REMARK  159  A    between atoms: _393  and  _396
REMARK  160  A    between atoms: _396  and  _397
REMARK  161  A    between atoms: _404  and  _405
REMARK  162  A    between atoms: _410  and  _412
REMARK  163  A    between atoms: _412  and  _413
REMARK  164  A    between atoms: _412  and  _415
REMARK  165  A    between atoms: _415  and  _416
REMARK  166  A    between atoms: _422  and  _424
REMARK  167  A    between atoms: _424  and  _425
REMARK  168  A    between atoms: _424  and  _427
REMARK  169  A    between atoms: _427  and  _428
REMARK  170  A    between atoms: _431  and  _433
REMARK  171  A    between atoms: _433  and  _434
REMARK  172  A    between atoms: _433  and  _436
REMARK  173  A    between atoms: _436  and  _437
REMARK  174  A    between atoms: _437  and  _438
REMARK  175  A    between atoms: _438  and  _439
REMARK  176  A    between atoms: _439  and  _440
REMARK  177  A    between atoms: _444  and  _446
REMARK  178  A    between atoms: _446  and  _447
REMARK  179  A    between atoms: _446  and  _449
REMARK  180  A    between atoms: _449  and  _450
REMARK  181  A    between atoms: _453  and  _455
REMARK  182  A    between atoms: _455  and  _456
REMARK  183  A    between atoms: _455  and  _458
REMARK  184  A    between atoms: _461  and  _463
REMARK  185  A    between atoms: _463  and  _464
REMARK  186  A    between atoms: _463  and  _466
REMARK  187  A    between atoms: _469  and  _471
REMARK  188  A    between atoms: _471  and  _472
REMARK  189  A    between atoms: _471  and  _474
REMARK  190  A    between atoms: _474  and  _475
REMARK  191  A    between atoms: _478  and  _480
REMARK  192  A    between atoms: _480  and  _481
REMARK  193  A    between atoms: _480  and  _483
REMARK  194  A    between atoms: _483  and  _484
REMARK  195  A    between atoms: _487  and  _489
REMARK  196  A    between atoms: _489  and  _490
REMARK  197  A    between atoms: _489  and  _492
REMARK  198  A    between atoms: _492  and  _493
REMARK  199  A    between atoms: _496  and  _498
REMARK  200  A    between atoms: _498  and  _499
REMARK  201  A    between atoms: _498  and  _501
REMARK  202  A    between atoms: _501  and  _502
REMARK  203  A    between atoms: _506  and  _507
REMARK  204  A    between atoms: _512  and  _514
REMARK  205  A    between atoms: _514  and  _515
REMARK  206  A    between atoms: _514  and  _517
REMARK  207  A    between atoms: _517  and  _518
REMARK  208  A    between atoms: _521  and  _523
REMARK  209  A    between atoms: _523  and  _524
REMARK  210  A    between atoms: _523  and  _526
REMARK  211  A    between atoms: _529  and  _531
REMARK  212  A    between atoms: _531  and  _532
REMARK  213  A    between atoms: _535  and  _537
REMARK  214  A    between atoms: _537  and  _538
REMARK  215  A    between atoms: _537  and  _540
REMARK  216  A    between atoms: _540  and  _541
REMARK  217  A    between atoms: _546  and  _547
REMARK  218  A    between atoms: _549  and  _551
REMARK  219  A    between atoms: _551  and  _552
REMARK  220  A    between atoms: _551  and  _554
REMARK  221  A    between atoms: _554  and  _555
REMARK  222  A    between atoms: _557  and  _559
REMARK  223  A    between atoms: _559  and  _560
REMARK  224  A    between atoms: _559  and  _562
REMARK  225  A    between atoms: _562  and  _563
REMARK  226  A    between atoms: _565  and  _567
REMARK  227  A    between atoms: _567  and  _568
REMARK  228  A    between atoms: _567  and  _570
REMARK  229  A    between atoms: _574  and  _575
REMARK  230  A    between atoms: _580  and  _582
REMARK  231  A    between atoms: _582  and  _583
REMARK  232  A    between atoms: _582  and  _585
REMARK  233  A    between atoms: _585  and  _586
REMARK  234  A    between atoms: _591  and  _592
REMARK  235  A    between atoms: _594  and  _596
REMARK  236  A    between atoms: _596  and  _597
REMARK  237  A    between atoms: _596  and  _599
REMARK  238  A    between atoms: _599  and  _600
REMARK  239  A    between atoms: _600  and  _601
REMARK  240  A    between atoms: _601  and  _602
REMARK  241  A    between atoms: _611  and  _613
REMARK  242  A    between atoms: _613  and  _614
REMARK  243  A    between atoms: _613  and  _616
REMARK  244  A    between atoms: _616  and  _617
REMARK  245  A    between atoms: _617  and  _618
REMARK  246  A    between atoms: _620  and  _622
REMARK  247  A    between atoms: _622  and  _623
REMARK  248  A    between atoms: _622  and  _625
REMARK  249  A    between atoms: _628  and  _630
REMARK  250  A    between atoms: _630  and  _631
REMARK  251  A    between atoms: _630  and  _633
REMARK  252  A    between atoms: _633  and  _634
REMARK                            x       y       z     vdW  Elec       q    Type
REMARK                         _______ _______ _______ _____ _____    ______ ____
ROOT
ATOM      1  N   LEU A   7      28.175  87.430 -11.113  0.00  0.00    +0.000 N 
ATOM      2  H   LEU A   7      27.400  88.028 -10.762  0.00  0.00    +0.000 HD
ATOM      3  C   TRP A   6      28.216  86.123 -10.804  0.00  0.00    +0.000 C 
ATOM      4  O   TRP A   6      29.054  85.363 -11.285  0.00  0.00    +0.000 OA
ENDROOT
BRANCH   1   5
ATOM      5  CA  LEU A   7      29.250  88.017 -11.964  0.00  0.00    +0.000 C 
BRANCH   5   8
ATOM      6  N   ASN A   8      30.703  88.012 -10.024  0.00  0.00    +0.000 N 
ATOM      7  H   ASN A   8      29.869  88.390  -9.531  0.00  0.00    +0.000 HD
ATOM      8  C   LEU A   7      30.620  87.772 -11.335  0.00  0.00    +0.000 C 
ATOM      9  O   LEU A   7      31.566  87.384 -12.043  0.00  0.00    +0.000 OA
BRANCH   6  10
ATOM     10  CA  ASN A   8      31.923  87.763  -9.254  0.00  0.00    +0.000 C 
BRANCH  10  13
ATOM     11  N   UNK A   9      31.380  85.406  -8.964  0.00  0.00    +0.000 N 
ATOM     12  H   UNK A   9      30.391  85.707  -8.854  0.00  0.00    +0.000 HD
ATOM     13  C   ASN A   8      32.314  86.303  -9.304  0.00  0.00    +0.000 C 
ATOM     14  O   ASN A   8      33.456  85.994  -9.657  0.00  0.00    +0.000 OA
BRANCH  11  15
ATOM     15  C   UNK A   9      31.745  83.997  -8.745  0.00  0.00    +0.000 C 
BRANCH  15  16
ATOM     16  C   UNK A   9      31.847  83.139 -10.005  0.00  0.00    +0.000 C 
ATOM     17  O   UNK A   9      32.777  82.335 -10.137  0.00  0.00    +0.000 OA
ENDBRANCH  15  16
BRANCH  15  18
ATOM     18  C   UNK A   9      30.836  83.350  -7.681  0.00  0.00    +0.000 C 
BRANCH  18  19
ATOM     19  C   UNK A   9      30.925  84.089  -6.329  0.00  0.00    +0.000 C 
BRANCH  19  20
ATOM     20  C   UNK A   9      32.341  84.103  -5.752  0.00  0.00    +0.000 C 
ATOM     21  O   UNK A   9      32.654  85.000  -4.969  0.00  0.00    +0.000 OA
BRANCH  20  22
ATOM     22  O   UNK A   9      33.164  83.223  -6.076  0.00  0.00    +0.000 OA
BRANCH  22  23
ATOM     23 ZN   UNK A   1      34.835  83.435  -5.011  0.00  0.00    +0.000 Zn
BRANCH  23  26
ATOM     24  C   UNK A   1      37.674  80.596  -6.262  0.00  0.00    +0.000 A 
ATOM     25  C   UNK A   1      37.259  81.601  -5.449  0.00  0.00    +0.000 A 
ATOM     26  N   UNK A   1      35.959  81.884  -5.792  0.00  0.00    +0.000 N 
ATOM     27  C   UNK A   1      35.577  81.059  -6.752  0.00  0.00    +0.000 A 
ATOM     28  N   UNK A   1      36.599  80.279  -7.063  0.00  0.00    +0.000 NA
BRANCH  24  29
ATOM     29  C   UNK A   1      38.994  79.901  -6.377  0.00  0.00    +0.000 C 
BRANCH  29  30
ATOM     30  C   UNK A   1      40.043  80.693  -7.162  0.00  0.00    +0.000 C 
BRANCH  30  31
ATOM     31  C   UNK A   1      40.242  82.099  -6.537  0.00  0.00    +0.000 C 
ATOM     32  N   GLU A   2      40.846  82.159  -5.347  0.00  0.00    +0.000 N 
ATOM     33  H   GLU A   2      41.145  81.280  -4.879  0.00  0.00    +0.000 HD
ATOM     34  O   UNK A   1      39.826  83.106  -7.117  0.00  0.00    +0.000 OA
BRANCH  32  35
ATOM     35  CA  GLU A   2      41.096  83.459  -4.686  0.00  0.00    +0.000 C 
BRANCH  35  36
ATOM     36  C   GLU A   2      42.016  84.371  -5.529  0.00  0.00    +0.000 C 
ATOM     37  O   GLU A   2      41.760  85.573  -5.658  0.00  0.00    +0.000 OA
ATOM     38  N   ILE A   3      43.091  83.800  -6.075  0.00  0.00    +0.000 N 
ATOM     39  H   ILE A   3      43.348  82.833  -5.793  0.00  0.00    +0.000 HD
BRANCH  38  40
ATOM     40  CA  ILE A   3      43.930  84.508  -7.074  0.00  0.00    +0.000 C 
BRANCH  40  41
ATOM     41  C   ILE A   3      43.082  85.120  -8.186  0.00  0.00    +0.000 C 
ATOM     42  O   ILE A   3      43.235  86.300  -8.530  0.00  0.00    +0.000 OA
ENDBRANCH  40  41
BRANCH  40  43
ATOM     43  CB  ILE A   3      45.028  83.574  -7.680  0.00  0.00    +0.000 C 
ATOM     44  CG2 ILE A   3      45.628  84.156  -8.961  0.00  0.00    +0.000 C 
BRANCH  43  45
ATOM     45  CG1 ILE A   3      46.108  83.266  -6.630  0.00  0.00    +0.000 C 
ATOM     46  CD1 ILE A   3      47.027  82.145  -7.015  0.00  0.00    +0.000 C 
ENDBRANCH  43  45
ENDBRANCH  40  43
ENDBRANCH  38  40
ENDBRANCH  35  36
BRANCH  35  47
ATOM     47  CB  GLU A   2      41.705  83.271  -3.284  0.00  0.00    +0.000 C 
BRANCH  47  48
ATOM     48  CG  GLU A   2      40.856  82.417  -2.326  0.00  0.00    +0.000 C 
BRANCH  48  49
ATOM     49  CD  GLU A   2      39.347  82.754  -2.364  0.00  0.00    +0.000 C 
ATOM     50  OE2 GLU A   2      38.535  81.812  -2.268  0.00  0.00    +0.000 OA
ATOM     51  OE1 GLU A   2      38.968  83.941  -2.484  0.00  0.00    +0.000 OA
ENDBRANCH  48  49
ENDBRANCH  47  48
ENDBRANCH  35  47
ENDBRANCH  32  35
ENDBRANCH  30  31
BRANCH  30  52
ATOM     52  N   UNK A   1      41.303  79.949  -7.180  0.00  0.00    +0.000 NA
ATOM     53  H   UNK A   1      41.392  79.092  -6.597  0.00  0.00    +0.000 HD
ENDBRANCH  30  52
ENDBRANCH  29  30
ENDBRANCH  24  29
ENDBRANCH  23  26
BRANCH  23  54
ATOM     54  N   UNK A   1      35.862  85.100  -5.674  0.00  0.00    +0.000 N 
ATOM     55  C   UNK A   1      37.200  85.333  -5.448  0.00  0.00    +0.000 A 
ATOM     56  C   UNK A   1      37.556  86.382  -6.227  0.00  0.00    +0.000 A 
ATOM     57  N   UNK A   1      36.421  86.747  -6.928  0.00  0.00    +0.000 NA
ATOM     58  C   UNK A   1      35.418  85.961  -6.572  0.00  0.00    +0.000 A 
BRANCH  56  59
ATOM     59  C   UNK A   1      38.859  87.094  -6.373  0.00  0.00    +0.000 C 
BRANCH  59  60
ATOM     60  C   UNK A   1      39.323  87.249  -7.819  0.00  0.00    +0.000 C 
BRANCH  60  61
ATOM     61  C   UNK A   1      40.075  88.563  -7.933  0.00  0.00    +0.000 C 
ATOM     62  O   UNK A   1      39.440  89.617  -7.908  0.00  0.00    +0.000 OA
ENDBRANCH  60  61
BRANCH  60  63
ATOM     63  N   UNK A   1      40.045  86.072  -8.285  0.00  0.00    +0.000 NA
ATOM     64  H   UNK A   1      40.191  85.270  -7.639  0.00  0.00    +0.000 HD
ENDBRANCH  60  63
ENDBRANCH  59  60
ENDBRANCH  56  59
ENDBRANCH  23  54
ENDBRANCH  22  23
ENDBRANCH  20  22
ENDBRANCH  19  20
ENDBRANCH  18  19
ENDBRANCH  15  18
ENDBRANCH  11  15
ENDBRANCH  10  13
BRANCH  10  65
ATOM     65  CB  ASN A   8      31.785  88.148  -7.772  0.00  0.00    +0.000 C 
BRANCH  65  66
ATOM     66  CG  ASN A   8      31.983  89.618  -7.517  0.00  0.00    +0.000 C 
ATOM     67  ND2 ASN A   8      32.392  89.968  -6.277  0.00  0.00    +0.000 N 
ATOM     68 HD21 ASN A   8      32.559  89.235  -5.558  0.00  0.00    +0.000 HD
ATOM     69 HD22 ASN A   8      32.540  90.970  -6.042  0.00  0.00    +0.000 HD
ATOM     70  OD1 ASN A   8      31.769  90.444  -8.410  0.00  0.00    +0.000 OA
ENDBRANCH  65  66
ENDBRANCH  10  65
ENDBRANCH   6  10
ENDBRANCH   5   8
BRANCH   5  71
ATOM     71  CB  LEU A   7      29.091  89.524 -12.190  0.00  0.00    +0.000 C 
BRANCH  71  72
ATOM     72  CG  LEU A   7      27.860  89.942 -12.989  0.00  0.00    +0.000 C 
ATOM     73  CD2 LEU A   7      27.755  91.462 -13.038  0.00  0.00    +0.000 C 
ATOM     74  CD1 LEU A   7      27.943  89.335 -14.395  0.00  0.00    +0.000 C 
ENDBRANCH  71  72
ENDBRANCH   5  71
ENDBRANCH   1   5
BRANCH   3  75
ATOM     75  CA  TRP A   6      27.129  85.566  -9.870  0.00  0.00    +0.000 C 
BRANCH  75  76
ATOM     76  N   TRP A   6      26.641  86.541  -8.879  0.00  0.00    +0.000 N 
ATOM     77  C   PHE A   5      27.508  87.196  -8.103  0.00  0.00    +0.000 C 
ATOM     78  O   PHE A   5      28.725  87.012  -8.170  0.00  0.00    +0.000 OA
ATOM     79  H   TRP A   6      25.621  86.719  -8.784  0.00  0.00    +0.000 HD
BRANCH  77  80
ATOM     80  CA  PHE A   5      26.952  88.228  -7.137  0.00  0.00    +0.000 C 
BRANCH  80  81
ATOM     81  N   PHE A   5      25.819  88.974  -7.717  0.00  0.00    +0.000 N 
ATOM     82  H   PHE A   5      24.936  89.025  -7.169  0.00  0.00    +0.000 HD
ATOM     83  C   HIS A   4      25.858  89.589  -8.906  0.00  0.00    +0.000 C 
ATOM     84  O   HIS A   4      26.819  89.549  -9.664  0.00  0.00    +0.000 OA
BRANCH  83  85
ATOM     85  CA  HIS A   4      24.598  90.337  -9.307  0.00  0.00    +0.000 C 
BRANCH  85  86
ATOM     86  N   HIS A   4      23.746  90.704  -8.169  0.00  0.00    +0.000 N 
ATOM     87  H   HIS A   4      24.011  91.520  -7.582  0.00  0.00    +0.000 HD
ATOM     88  C   ILE A   3      22.644  90.021  -7.868  0.00  0.00    +0.000 C 
ATOM     89  O   ILE A   3      22.266  89.024  -8.498  0.00  0.00    +0.000 OA
BRANCH  88  90
ATOM     90  CA  ILE A   3      21.820  90.558  -6.710  0.00  0.00    +0.000 C 
BRANCH  90  91
ATOM     91  N   ILE A   3      22.708  91.303  -5.814  0.00  0.00    +0.000 N 
ATOM     92  C   GLU A   2      23.702  90.698  -5.153  0.00  0.00    +0.000 C 
ATOM     93  O   GLU A   2      23.885  89.495  -5.197  0.00  0.00    +0.000 OA
ATOM     94  H   ILE A   3      22.563  92.325  -5.689  0.00  0.00    +0.000 HD
BRANCH  92  95
ATOM     95  CA  GLU A   2      24.645  91.571  -4.322  0.00  0.00    +0.000 C 
BRANCH  95  96
ATOM     96  N   GLU A   2      24.540  92.988  -4.620  0.00  0.00    +0.000 N 
ATOM     97  H   GLU A   2      24.087  93.627  -3.936  0.00  0.00    +0.000 HD
ATOM     98  C   UNK A   1      25.018  93.474  -5.758  0.00  0.00    +0.000 C 
ATOM     99  O   UNK A   1      25.508  92.757  -6.647  0.00  0.00    +0.000 OA
BRANCH  98 100
ATOM    100  C   UNK A   1      24.900  94.994  -5.935  0.00  0.00    +0.000 C 
BRANCH 100 101
ATOM    101  N   UNK A   1      25.631  95.373  -7.141  0.00  0.00    +0.000 NA
ATOM    102  H   UNK A   1      25.533  94.790  -7.996  0.00  0.00    +0.000 HD
ENDBRANCH 100 101
BRANCH 100 103
ATOM    103  C   UNK A   1      23.400  95.337  -6.005  0.00  0.00    +0.000 C 
ATOM    104  C   UNK A   1      23.166  96.752  -6.574  0.00  0.00    +0.000 C 
BRANCH 103 105
ATOM    105  O   UNK A   1      22.743  94.371  -6.826  0.00  0.00    +0.000 OA
ATOM    106  H   UNK A   1      21.778  94.584  -6.876  0.00  0.00    +0.000 HD
ENDBRANCH 103 105
ENDBRANCH 100 103
ENDBRANCH  98 100
ENDBRANCH  95  96
BRANCH  95 107
ATOM    107  CB  GLU A   2      24.494  91.334  -2.813  0.00  0.00    +0.000 C 
BRANCH 107 108
ATOM    108  CG  GLU A   2      25.598  92.033  -2.079  0.00  0.00    +0.000 A 
ATOM    109  CD1 GLU A   2      25.486  93.124  -1.262  0.00  0.00    +0.000 A 
ATOM    110  NE1 GLU A   2      26.738  93.500  -0.806  0.00  0.00    +0.000 N 
ATOM    111  HE1 GLU A   2      26.933  94.288  -0.155  0.00  0.00    +0.000 HD
ATOM    112  CE2 GLU A   2      27.681  92.663  -1.353  0.00  0.00    +0.000 A 
ATOM    113  CZ2 GLU A   2      29.085  92.649  -1.202  0.00  0.00    +0.000 A 
ATOM    114  CH2 GLU A   2      29.784  91.681  -1.874  0.00  0.00    +0.000 A 
ATOM    115  CZ3 GLU A   2      29.133  90.732  -2.688  0.00  0.00    +0.000 A 
ATOM    116  CE3 GLU A   2      27.737  90.743  -2.841  0.00  0.00    +0.000 A 
ATOM    117  CD2 GLU A   2      26.996  91.732  -2.170  0.00  0.00    +0.000 A 
ENDBRANCH 107 108
ENDBRANCH  95 107
ENDBRANCH  92  95
ENDBRANCH  90  91
BRANCH  90 118
ATOM    118  CB  ILE A   3      20.717  91.465  -7.301  0.00  0.00    +0.000 C 
BRANCH 118 119
ATOM    119  CG  ILE A   3      19.703  91.950  -6.260  0.00  0.00    +0.000 C 
ATOM    120  OD2 ILE A   3      19.631  91.441  -5.132  0.00  0.00    +0.000 OA
ATOM    121  OD1 ILE A   3      18.934  92.852  -6.595  0.00  0.00    +0.000 OA
ENDBRANCH 118 119
ENDBRANCH  90 118
ENDBRANCH  88  90
ENDBRANCH  85  86
BRANCH  85 122
ATOM    122  CB  HIS A   4      24.910  91.569 -10.162  0.00  0.00    +0.000 C 
BRANCH 122 123
ATOM    123  CG  HIS A   4      23.673  92.261 -10.626  0.00  0.00    +0.000 A 
ATOM    124  CD2 HIS A   4      22.986  93.297 -10.096  0.00  0.00    +0.000 A 
ATOM    125  NE2 HIS A   4      21.879  93.488 -10.881  0.00  0.00    +0.000 NA
ATOM    126  CE1 HIS A   4      21.863  92.573 -11.834  0.00  0.00    +0.000 A 
ATOM    127  ND1 HIS A   4      22.935  91.815 -11.702  0.00  0.00    +0.000 NA
ENDBRANCH 122 123
ENDBRANCH  85 122
ENDBRANCH  83  85
ENDBRANCH  80  81
BRANCH  80 128
ATOM    128  CB  PHE A   5      26.508  87.586  -5.822  0.00  0.00    +0.000 C 
BRANCH 128 129
ATOM    129  CG  PHE A   5      27.581  86.837  -5.073  0.00  0.00    +0.000 A 
ATOM    130  CD2 PHE A   5      27.359  85.506  -4.688  0.00  0.00    +0.000 A 
ATOM    131  CE2 PHE A   5      28.333  84.781  -3.966  0.00  0.00    +0.000 A 
ATOM    132  CZ  PHE A   5      29.524  85.413  -3.585  0.00  0.00    +0.000 A 
ATOM    133  CE1 PHE A   5      29.751  86.748  -3.952  0.00  0.00    +0.000 A 
ATOM    134  CD1 PHE A   5      28.776  87.453  -4.688  0.00  0.00    +0.000 A 
ENDBRANCH 128 129
ENDBRANCH  80 128
ENDBRANCH  77  80
ENDBRANCH  75  76
BRANCH  75 135
ATOM    135  CB  TRP A   6      25.964  84.993 -10.710  0.00  0.00    +0.000 C 
BRANCH 135 136
ATOM    136  CG  TRP A   6      25.609  85.813 -11.941  0.00  0.00    +0.000 A 
ATOM    137  CD1 TRP A   6      24.708  86.837 -12.006  0.00  0.00    +0.000 A 
ATOM    138  NE1 TRP A   6      24.669  87.348 -13.271  0.00  0.00    +0.000 N 
ATOM    139  HE1 TRP A   6      24.077  88.147 -13.578  0.00  0.00    +0.000 HD
ATOM    140  CE2 TRP A   6      25.528  86.648 -14.074  0.00  0.00    +0.000 A 
ATOM    141  CZ2 TRP A   6      25.809  86.795 -15.448  0.00  0.00    +0.000 A 
ATOM    142  CH2 TRP A   6      26.748  85.945 -16.005  0.00  0.00    +0.000 A 
ATOM    143  CZ3 TRP A   6      27.392  84.954 -15.232  0.00  0.00    +0.000 A 
ATOM    144  CE3 TRP A   6      27.100  84.813 -13.857  0.00  0.00    +0.000 A 
ATOM    145  CD2 TRP A   6      26.154  85.676 -13.271  0.00  0.00    +0.000 A 
ENDBRANCH 135 136
ENDBRANCH  75 135
ENDBRANCH   3  75
TORSDOF 58
REMARK  Name = ../refined-set-2016/3fh7/3fh7_pocket.pdb
REMARK  252 active torsions:
REMARK  status: ('A' for Active; 'I' for Inactive)
REMARK    1  A    between atoms: _1  and  _3
REMARK    2  A    between atoms: _3  and  _4
REMARK    3  A    between atoms: _3  and  _6
REMARK    4  A    between atoms: _8  and  _10
REMARK    5  A    between atoms: _10  and  _11
REMARK    6  A    between atoms: _10  and  _13
REMARK    7  A    between atoms: _13  and  _14
REMARK    8  A    between atoms: _16  and  _18
REMARK    9  A    between atoms: _18  and  _19
REMARK   10  A    between atoms: _18  and  _21
REMARK   11  A    between atoms: _21  and  _22
REMARK   12  A    between atoms: _22  and  _23
REMARK   13  A    between atoms: _28  and  _30
REMARK   14  A    between atoms: _30  and  _31
REMARK   15  A    between atoms: _30  and  _33
REMARK   16  A    between atoms: _35  and  _37
REMARK   17  A    between atoms: _37  and  _38
REMARK   18  A    between atoms: _37  and  _40
REMARK   19  A    between atoms: _40  and  _41
REMARK   20  A    between atoms: _41  and  _42
REMARK   21  A    between atoms: _47  and  _49
REMARK   22  A    between atoms: _49  and  _50
REMARK   23  A    between atoms: _53  and  _55
REMARK   24  A    between atoms: _55  and  _56
REMARK   25  A    between atoms: _55  and  _58
REMARK   26  A    between atoms: _58  and  _59
REMARK   27  A    between atoms: _62  and  _64
REMARK   28  A    between atoms: _64  and  _65
REMARK   29  A    between atoms: _64  and  _67
REMARK   30  A    between atoms: _67  and  _68
REMARK   31  A    between atoms: _73  and  _75
REMARK   32  A    between atoms: _75  and  _76
REMARK   33  A    between atoms: _75  and  _78
REMARK   34  A    between atoms: _78  and  _79
REMARK   35  A    between atoms: _84  and  _85
REMARK   36  A    between atoms: _87  and  _89
REMARK   37  A    between atoms: _89  and  _90
REMARK   38  A    between atoms: _89  and  _92
REMARK   39  A    between atoms: _92  and  _93
REMARK   40  A    between atoms: _100  and  _101
REMARK   41  A    between atoms: _106  and  _108
REMARK   42  A    between atoms: _108  and  _109
REMARK   43  A    between atoms: _108  and  _111
REMARK   44  A    between atoms: _111  and  _112
REMARK   45  A    between atoms: _117  and  _118
REMARK   46  A    between atoms: _120  and  _122
REMARK   47  A    between atoms: _122  and  _123
REMARK   48  A    between atoms: _125  and  _127
REMARK   49  A    between atoms: _127  and  _128
REMARK   50  A    between atoms: _130  and  _132
REMARK   51  A    between atoms: _132  and  _133
REMARK   52  A    between atoms: _132  and  _135
REMARK   53  A    between atoms: _135  and  _136
REMARK   54  A    between atoms: _136  and  _137
REMARK   55  A    between atoms: _139  and  _141
REMARK   56  A    between atoms: _141  and  _142
REMARK   57  A    between atoms: _141  and  _144
REMARK   58  A    between atoms: _144  and  _145
REMARK   59  A    between atoms: _145  and  _146
REMARK   60  A    between atoms: _149  and  _151
REMARK   61  A    between atoms: _151  and  _152
REMARK   62  A    between atoms: _151  and  _154
REMARK   63  A    between atoms: _154  and  _155
REMARK   64  A    between atoms: _160  and  _162
REMARK   65  A    between atoms: _162  and  _163
REMARK   66  A    between atoms: _162  and  _165
REMARK   67  A    between atoms: _165  and  _166
REMARK   68  A    between atoms: _169  and  _171
REMARK   69  A    between atoms: _171  and  _172
REMARK   70  A    between atoms: _171  and  _174
REMARK   71  A    between atoms: _174  and  _175
REMARK   72  A    between atoms: _181  and  _183
REMARK   73  A    between atoms: _183  and  _184
REMARK   74  A    between atoms: _183  and  _186
REMARK   75  A    between atoms: _189  and  _191
REMARK   76  A    between atoms: _191  and  _192
REMARK   77  A    between atoms: _191  and  _194
REMARK   78  A    between atoms: _194  and  _195
REMARK   79  A    between atoms: _199  and  ZN_637
REMARK   80  A    between atoms: _200  and  _202
REMARK   81  A    between atoms: _202  and  _203
REMARK   82  A    between atoms: _202  and  _205
REMARK   83  A    between atoms: _205  and  _206
REMARK   84  A    between atoms: _206  and  _207
REMARK   85  A    between atoms: _210  and  _212
REMARK   86  A    between atoms: _212  and  _213
REMARK   87  A    between atoms: _212  and  _215
REMARK   88  A    between atoms: _215  and  _216
REMARK   89  A    between atoms: _219  and  _221
REMARK   90  A    between atoms: _221  and  _222
REMARK   91  A    between atoms: _221  and  _224
REMARK   92  A    between atoms: _224  and  _225
REMARK   93  A    between atoms: _229  and  ZN_637
REMARK   94  A    between atoms: _230  and  _232
REMARK   95  A    between atoms: _232  and  _233
REMARK   96  A    between atoms: _232  and  _235
REMARK   97  A    between atoms: _235  and  _236
REMARK   98  A    between atoms: _239  and  _241
REMARK   99  A    between atoms: _241  and  _242
REMARK  100  A    between atoms: _241  and  _244
REMARK  101  A    between atoms: _244  and  _245
REMARK  102  A    between atoms: _250  and  _252
REMARK  103  A    between atoms: _252  and  _253
REMARK  104  A    between atoms: _252  and  _255
REMARK  105  A    between atoms: _255  and  _256
REMARK  106  A    between atoms: _261  and  _263
REMARK  107  A    between atoms: _263  and  _264
REMARK  108  A    between atoms: _263  and  _266
REMARK  109  A    between atoms: _266  and  _267
REMARK  110  A    between atoms: _270  and  _272
REMARK  111  A    between atoms: _272  and  _273
REMARK  112  A    between atoms: _272  and  _275
REMARK  113  A    between atoms: _275  and  _276
REMARK  114  A    between atoms: _286  and  _288
REMARK  115  A    between atoms: _288  and  _289
REMARK  116  A    between atoms: _288  and  _291
REMARK  117  A    between atoms: _291  and  _292
REMARK  118  A    between atoms: _295  and  _297
REMARK  119  A    between atoms: _297  and  _298
REMARK  120  A    between atoms: _297  and  _300
REMARK  121  A    between atoms: _300  and  _301
REMARK  122  A    between atoms: _306  and  _308
REMARK  123  A    between atoms: _308  and  _309
REMARK  124  A    between atoms: _308  and  _311
REMARK  125  A    between atoms: _311  and  _312
REMARK  126  A    between atoms: _318  and  _320
REMARK  127  A    between atoms: _320  and  _321
REMARK  128  A    between atoms: _320  and  _323
REMARK  129  A    between atoms: _323  and  _324
REMARK  130  A    between atoms: _334  and  _336
REMARK  131  A    between atoms: _336  and  _337
REMARK  132  A    between atoms: _336  and  _339
REMARK  133  A    between atoms: _339  and  _340
REMARK  134  A    between atoms: _343  and  _345
REMARK  135  A    between atoms: _345  and  _346
REMARK  136  A    between atoms: _345  and  _348
REMARK  137  A    between atoms: _348  and  _349
REMARK  138  A    between atoms: _354  and  _356
REMARK  139  A    between atoms: _356  and  _357
REMARK  140  A    between atoms: _356  and  _359
REMARK  141  A    between atoms: _359  and  _360
REMARK  142  A    between atoms: _360  and  _361
REMARK  143  A    between atoms: _361  and  _362
REMARK  144  A    between atoms: _362  and  ZN_637
REMARK  145  A    between atoms: _364  and  _366
REMARK  146  A    between atoms: _366  and  _367
REMARK  147  A    between atoms: _366  and  _369
REMARK  148  A    between atoms: _369  and  _370
REMARK  149  A    between atoms: _373  and  _375
REMARK  150  A    between atoms: _375  and  _376
REMARK  151  A    between atoms: _375  and  _378
REMARK  152  A    between atoms: _381  and  _383
REMARK  153  A    between atoms: _383  and  _384
REMARK  154  A    between atoms: _383  and  _386
REMARK  155  A    between atoms: _386  and  _387
REMARK  156  A    between atoms: _387  and  _388
REMARK  157  A    between atoms: _391  and  _393
REMARK  158  A    between atoms: _393  and  _394
REMARK  159  A    between atoms: _393  and  _396
REMARK  160  A    between atoms: _396  and  _397
REMARK  161  A    between atoms: _404  and  _405
REMARK  162  A    between atoms: _410  and  _412
REMARK  163  A    between atoms: _412  and  _413
REMARK  164  A    between atoms: _412  and  _415
REMARK  165  A    between atoms: _415  and  _416
REMARK  166  A    between atoms: _422  and  _424
REMARK  167  A    between atoms: _424  and  _425
REMARK  168  A    between atoms: _424  and  _427
REMARK  169  A    between atoms: _427  and  _428
REMARK  170  A    between atoms: _431  and  _433
REMARK  171  A    between atoms: _433  and  _434
REMARK  172  A    between atoms: _433  and  _436
REMARK  173  A    between atoms: _436  and  _437
REMARK  174  A    between atoms: _437  and  _438
REMARK  175  A    between atoms: _438  and  _439
REMARK  176  A    between atoms: _439  and  _440
REMARK  177  A    between atoms: _444  and  _446
REMARK  178  A    between atoms: _446  and  _447
REMARK  179  A    between atoms: _446  and  _449
REMARK  180  A    between atoms: _449  and  _450
REMARK  181  A    between atoms: _453  and  _455
REMARK  182  A    between atoms: _455  and  _456
REMARK  183  A    between atoms: _455  and  _458
REMARK  184  A    between atoms: _461  and  _463
REMARK  185  A    between atoms: _463  and  _464
REMARK  186  A    between atoms: _463  and  _466
REMARK  187  A    between atoms: _469  and  _471
REMARK  188  A    between atoms: _471  and  _472
REMARK  189  A    between atoms: _471  and  _474
REMARK  190  A    between atoms: _474  and  _475
REMARK  191  A    between atoms: _478  and  _480
REMARK  192  A    between atoms: _480  and  _481
REMARK  193  A    between atoms: _480  and  _483
REMARK  194  A    between atoms: _483  and  _484
REMARK  195  A    between atoms: _487  and  _489
REMARK  196  A    between atoms: _489  and  _490
REMARK  197  A    between atoms: _489  and  _492
REMARK  198  A    between atoms: _492  and  _493
REMARK  199  A    between atoms: _496  and  _498
REMARK  200  A    between atoms: _498  and  _499
REMARK  201  A    between atoms: _498  and  _501
REMARK  202  A    between atoms: _501  and  _502
REMARK  203  A    between atoms: _506  and  _507
REMARK  204  A    between atoms: _512  and  _514
REMARK  205  A    between atoms: _514  and  _515
REMARK  206  A    between atoms: _514  and  _517
REMARK  207  A    between atoms: _517  and  _518
REMARK  208  A    between atoms: _521  and  _523
REMARK  209  A    between atoms: _523  and  _524
REMARK  210  A    between atoms: _523  and  _526
REMARK  211  A    between atoms: _529  and  _531
REMARK  212  A    between atoms: _531  and  _532
REMARK  213  A    between atoms: _535  and  _537
REMARK  214  A    between atoms: _537  and  _538
REMARK  215  A    between atoms: _537  and  _540
REMARK  216  A    between atoms: _540  and  _541
REMARK  217  A    between atoms: _546  and  _547
REMARK  218  A    between atoms: _549  and  _551
REMARK  219  A    between atoms: _551  and  _552
REMARK  220  A    between atoms: _551  and  _554
REMARK  221  A    between atoms: _554  and  _555
REMARK  222  A    between atoms: _557  and  _559
REMARK  223  A    between atoms: _559  and  _560
REMARK  224  A    between atoms: _559  and  _562
REMARK  225  A    between atoms: _562  and  _563
REMARK  226  A    between atoms: _565  and  _567
REMARK  227  A    between atoms: _567  and  _568
REMARK  228  A    between atoms: _567  and  _570
REMARK  229  A    between atoms: _574  and  _575
REMARK  230  A    between atoms: _580  and  _582
REMARK  231  A    between atoms: _582  and  _583
REMARK  232  A    between atoms: _582  and  _585
REMARK  233  A    between atoms: _585  and  _586
REMARK  234  A    between atoms: _591  and  _592
REMARK  235  A    between atoms: _594  and  _596
REMARK  236  A    between atoms: _596  and  _597
REMARK  237  A    between atoms: _596  and  _599
REMARK  238  A    between atoms: _599  and  _600
REMARK  239  A    between atoms: _600  and  _601
REMARK  240  A    between atoms: _601  and  _602
REMARK  241  A    between atoms: _611  and  _613
REMARK  242  A    between atoms: _613  and  _614
REMARK  243  A    between atoms: _613  and  _616
REMARK  244  A    between atoms: _616  and  _617
REMARK  245  A    between atoms: _617  and  _618
REMARK  246  A    between atoms: _620  and  _622
REMARK  247  A    between atoms: _622  and  _623
REMARK  248  A    between atoms: _622  and  _625
REMARK  249  A    between atoms: _628  and  _630
REMARK  250  A    between atoms: _630  and  _631
REMARK  251  A    between atoms: _630  and  _633
REMARK  252  A    between atoms: _633  and  _634
REMARK                            x       y       z     vdW  Elec       q    Type
REMARK                         _______ _______ _______ _____ _____    ______ ____
ROOT
ATOM      1  CA  THR A   1      36.989  89.095 -11.459  0.00  0.00    +0.160 C 
ENDROOT
BRANCH   1   2
ATOM      2  N   THR A   1      38.432  89.210 -11.418  0.00  0.00    -0.237 NA
ATOM      3  H   THR A   1      39.014  88.355 -11.306  0.00  0.00    +0.142 HD
ENDBRANCH   1   2
BRANCH   1   4
ATOM      4  C   THR A   1      36.450  89.132 -10.045  0.00  0.00    +0.227 C 
ATOM      5  O   THR A   1      36.453  88.110  -9.338  0.00  0.00    -0.287 OA
ENDBRANCH   1   4
BRANCH   1   6
ATOM      6  CB  THR A   1      36.552  87.812 -12.191  0.00  0.00    +0.134 C 
ATOM      7  CG2 THR A   1      36.828  87.958 -13.691  0.00  0.00    +0.034 C 
BRANCH   6   8
ATOM      8  OG1 THR A   1      37.301  86.706 -11.684  0.00  0.00    -0.383 OA
ATOM      9  HG1 THR A   1      37.131  86.611 -10.713  0.00  0.00    +0.210 HD
ENDBRANCH   6   8
ENDBRANCH   1   6
TORSDOF 4
REMARK  Name = ../refined-set-2016/3fh7/3fh7_pocket.pdb
REMARK  252 active torsions:
REMARK  status: ('A' for Active; 'I' for Inactive)
REMARK    1  A    between atoms: _1  and  _3
REMARK    2  A    between atoms: _3  and  _4
REMARK    3  A    between atoms: _3  and  _6
REMARK    4  A    between atoms: _8  and  _10
REMARK    5  A    between atoms: _10  and  _11
REMARK    6  A    between atoms: _10  and  _13
REMARK    7  A    between atoms: _13  and  _14
REMARK    8  A    between atoms: _16  and  _18
REMARK    9  A    between atoms: _18  and  _19
REMARK   10  A    between atoms: _18  and  _21
REMARK   11  A    between atoms: _21  and  _22
REMARK   12  A    between atoms: _22  and  _23
REMARK   13  A    between atoms: _28  and  _30
REMARK   14  A    between atoms: _30  and  _31
REMARK   15  A    between atoms: _30  and  _33
REMARK   16  A    between atoms: _35  and  _37
REMARK   17  A    between atoms: _37  and  _38
REMARK   18  A    between atoms: _37  and  _40
REMARK   19  A    between atoms: _40  and  _41
REMARK   20  A    between atoms: _41  and  _42
REMARK   21  A    between atoms: _47  and  _49
REMARK   22  A    between atoms: _49  and  _50
REMARK   23  A    between atoms: _53  and  _55
REMARK   24  A    between atoms: _55  and  _56
REMARK   25  A    between atoms: _55  and  _58
REMARK   26  A    between atoms: _58  and  _59
REMARK   27  A    between atoms: _62  and  _64
REMARK   28  A    between atoms: _64  and  _65
REMARK   29  A    between atoms: _64  and  _67
REMARK   30  A    between atoms: _67  and  _68
REMARK   31  A    between atoms: _73  and  _75
REMARK   32  A    between atoms: _75  and  _76
REMARK   33  A    between atoms: _75  and  _78
REMARK   34  A    between atoms: _78  and  _79
REMARK   35  A    between atoms: _84  and  _85
REMARK   36  A    between atoms: _87  and  _89
REMARK   37  A    between atoms: _89  and  _90
REMARK   38  A    between atoms: _89  and  _92
REMARK   39  A    between atoms: _92  and  _93
REMARK   40  A    between atoms: _100  and  _101
REMARK   41  A    between atoms: _106  and  _108
REMARK   42  A    between atoms: _108  and  _109
REMARK   43  A    between atoms: _108  and  _111
REMARK   44  A    between atoms: _111  and  _112
REMARK   45  A    between atoms: _117  and  _118
REMARK   46  A    between atoms: _120  and  _122
REMARK   47  A    between atoms: _122  and  _123
REMARK   48  A    between atoms: _125  and  _127
REMARK   49  A    between atoms: _127  and  _128
REMARK   50  A    between atoms: _130  and  _132
REMARK   51  A    between atoms: _132  and  _133
REMARK   52  A    between atoms: _132  and  _135
REMARK   53  A    between atoms: _135  and  _136
REMARK   54  A    between atoms: _136  and  _137
REMARK   55  A    between atoms: _139  and  _141
REMARK   56  A    between atoms: _141  and  _142
REMARK   57  A    between atoms: _141  and  _144
REMARK   58  A    between atoms: _144  and  _145
REMARK   59  A    between atoms: _145  and  _146
REMARK   60  A    between atoms: _149  and  _151
REMARK   61  A    between atoms: _151  and  _152
REMARK   62  A    between atoms: _151  and  _154
REMARK   63  A    between atoms: _154  and  _155
REMARK   64  A    between atoms: _160  and  _162
REMARK   65  A    between atoms: _162  and  _163
REMARK   66  A    between atoms: _162  and  _165
REMARK   67  A    between atoms: _165  and  _166
REMARK   68  A    between atoms: _169  and  _171
REMARK   69  A    between atoms: _171  and  _172
REMARK   70  A    between atoms: _171  and  _174
REMARK   71  A    between atoms: _174  and  _175
REMARK   72  A    between atoms: _181  and  _183
REMARK   73  A    between atoms: _183  and  _184
REMARK   74  A    between atoms: _183  and  _186
REMARK   75  A    between atoms: _189  and  _191
REMARK   76  A    between atoms: _191  and  _192
REMARK   77  A    between atoms: _191  and  _194
REMARK   78  A    between atoms: _194  and  _195
REMARK   79  A    between atoms: _199  and  ZN_637
REMARK   80  A    between atoms: _200  and  _202
REMARK   81  A    between atoms: _202  and  _203
REMARK   82  A    between atoms: _202  and  _205
REMARK   83  A    between atoms: _205  and  _206
REMARK   84  A    between atoms: _206  and  _207
REMARK   85  A    between atoms: _210  and  _212
REMARK   86  A    between atoms: _212  and  _213
REMARK   87  A    between atoms: _212  and  _215
REMARK   88  A    between atoms: _215  and  _216
REMARK   89  A    between atoms: _219  and  _221
REMARK   90  A    between atoms: _221  and  _222
REMARK   91  A    between atoms: _221  and  _224
REMARK   92  A    between atoms: _224  and  _225
REMARK   93  A    between atoms: _229  and  ZN_637
REMARK   94  A    between atoms: _230  and  _232
REMARK   95  A    between atoms: _232  and  _233
REMARK   96  A    between atoms: _232  and  _235
REMARK   97  A    between atoms: _235  and  _236
REMARK   98  A    between atoms: _239  and  _241
REMARK   99  A    between atoms: _241  and  _242
REMARK  100  A    between atoms: _241  and  _244
REMARK  101  A    between atoms: _244  and  _245
REMARK  102  A    between atoms: _250  and  _252
REMARK  103  A    between atoms: _252  and  _253
REMARK  104  A    between atoms: _252  and  _255
REMARK  105  A    between atoms: _255  and  _256
REMARK  106  A    between atoms: _261  and  _263
REMARK  107  A    between atoms: _263  and  _264
REMARK  108  A    between atoms: _263  and  _266
REMARK  109  A    between atoms: _266  and  _267
REMARK  110  A    between atoms: _270  and  _272
REMARK  111  A    between atoms: _272  and  _273
REMARK  112  A    between atoms: _272  and  _275
REMARK  113  A    between atoms: _275  and  _276
REMARK  114  A    between atoms: _286  and  _288
REMARK  115  A    between atoms: _288  and  _289
REMARK  116  A    between atoms: _288  and  _291
REMARK  117  A    between atoms: _291  and  _292
REMARK  118  A    between atoms: _295  and  _297
REMARK  119  A    between atoms: _297  and  _298
REMARK  120  A    between atoms: _297  and  _300
REMARK  121  A    between atoms: _300  and  _301
REMARK  122  A    between atoms: _306  and  _308
REMARK  123  A    between atoms: _308  and  _309
REMARK  124  A    between atoms: _308  and  _311
REMARK  125  A    between atoms: _311  and  _312
REMARK  126  A    between atoms: _318  and  _320
REMARK  127  A    between atoms: _320  and  _321
REMARK  128  A    between atoms: _320  and  _323
REMARK  129  A    between atoms: _323  and  _324
REMARK  130  A    between atoms: _334  and  _336
REMARK  131  A    between atoms: _336  and  _337
REMARK  132  A    between atoms: _336  and  _339
REMARK  133  A    between atoms: _339  and  _340
REMARK  134  A    between atoms: _343  and  _345
REMARK  135  A    between atoms: _345  and  _346
REMARK  136  A    between atoms: _345  and  _348
REMARK  137  A    between atoms: _348  and  _349
REMARK  138  A    between atoms: _354  and  _356
REMARK  139  A    between atoms: _356  and  _357
REMARK  140  A    between atoms: _356  and  _359
REMARK  141  A    between atoms: _359  and  _360
REMARK  142  A    between atoms: _360  and  _361
REMARK  143  A    between atoms: _361  and  _362
REMARK  144  A    between atoms: _362  and  ZN_637
REMARK  145  A    between atoms: _364  and  _366
REMARK  146  A    between atoms: _366  and  _367
REMARK  147  A    between atoms: _366  and  _369
REMARK  148  A    between atoms: _369  and  _370
REMARK  149  A    between atoms: _373  and  _375
REMARK  150  A    between atoms: _375  and  _376
REMARK  151  A    between atoms: _375  and  _378
REMARK  152  A    between atoms: _381  and  _383
REMARK  153  A    between atoms: _383  and  _384
REMARK  154  A    between atoms: _383  and  _386
REMARK  155  A    between atoms: _386  and  _387
REMARK  156  A    between atoms: _387  and  _388
REMARK  157  A    between atoms: _391  and  _393
REMARK  158  A    between atoms: _393  and  _394
REMARK  159  A    between atoms: _393  and  _396
REMARK  160  A    between atoms: _396  and  _397
REMARK  161  A    between atoms: _404  and  _405
REMARK  162  A    between atoms: _410  and  _412
REMARK  163  A    between atoms: _412  and  _413
REMARK  164  A    between atoms: _412  and  _415
REMARK  165  A    between atoms: _415  and  _416
REMARK  166  A    between atoms: _422  and  _424
REMARK  167  A    between atoms: _424  and  _425
REMARK  168  A    between atoms: _424  and  _427
REMARK  169  A    between atoms: _427  and  _428
REMARK  170  A    between atoms: _431  and  _433
REMARK  171  A    between atoms: _433  and  _434
REMARK  172  A    between atoms: _433  and  _436
REMARK  173  A    between atoms: _436  and  _437
REMARK  174  A    between atoms: _437  and  _438
REMARK  175  A    between atoms: _438  and  _439
REMARK  176  A    between atoms: _439  and  _440
REMARK  177  A    between atoms: _444  and  _446
REMARK  178  A    between atoms: _446  and  _447
REMARK  179  A    between atoms: _446  and  _449
REMARK  180  A    between atoms: _449  and  _450
REMARK  181  A    between atoms: _453  and  _455
REMARK  182  A    between atoms: _455  and  _456
REMARK  183  A    between atoms: _455  and  _458
REMARK  184  A    between atoms: _461  and  _463
REMARK  185  A    between atoms: _463  and  _464
REMARK  186  A    between atoms: _463  and  _466
REMARK  187  A    between atoms: _469  and  _471
REMARK  188  A    between atoms: _471  and  _472
REMARK  189  A    between atoms: _471  and  _474
REMARK  190  A    between atoms: _474  and  _475
REMARK  191  A    between atoms: _478  and  _480
REMARK  192  A    between atoms: _480  and  _481
REMARK  193  A    between atoms: _480  and  _483
REMARK  194  A    between atoms: _483  and  _484
REMARK  195  A    between atoms: _487  and  _489
REMARK  196  A    between atoms: _489  and  _490
REMARK  197  A    between atoms: _489  and  _492
REMARK  198  A    between atoms: _492  and  _493
REMARK  199  A    between atoms: _496  and  _498
REMARK  200  A    between atoms: _498  and  _499
REMARK  201  A    between atoms: _498  and  _501
REMARK  202  A    between atoms: _501  and  _502
REMARK  203  A    between atoms: _506  and  _507
REMARK  204  A    between atoms: _512  and  _514
REMARK  205  A    between atoms: _514  and  _515
REMARK  206  A    between atoms: _514  and  _517
REMARK  207  A    between atoms: _517  and  _518
REMARK  208  A    between atoms: _521  and  _523
REMARK  209  A    between atoms: _523  and  _524
REMARK  210  A    between atoms: _523  and  _526
REMARK  211  A    between atoms: _529  and  _531
REMARK  212  A    between atoms: _531  and  _532
REMARK  213  A    between atoms: _535  and  _537
REMARK  214  A    between atoms: _537  and  _538
REMARK  215  A    between atoms: _537  and  _540
REMARK  216  A    between atoms: _540  and  _541
REMARK  217  A    between atoms: _546  and  _547
REMARK  218  A    between atoms: _549  and  _551
REMARK  219  A    between atoms: _551  and  _552
REMARK  220  A    between atoms: _551  and  _554
REMARK  221  A    between atoms: _554  and  _555
REMARK  222  A    between atoms: _557  and  _559
REMARK  223  A    between atoms: _559  and  _560
REMARK  224  A    between atoms: _559  and  _562
REMARK  225  A    between atoms: _562  and  _563
REMARK  226  A    between atoms: _565  and  _567
REMARK  227  A    between atoms: _567  and  _568
REMARK  228  A    between atoms: _567  and  _570
REMARK  229  A    between atoms: _574  and  _575
REMARK  230  A    between atoms: _580  and  _582
REMARK  231  A    between atoms: _582  and  _583
REMARK  232  A    between atoms: _582  and  _585
REMARK  233  A    between atoms: _585  and  _586
REMARK  234  A    between atoms: _591  and  _592
REMARK  235  A    between atoms: _594  and  _596
REMARK  236  A    between atoms: _596  and  _597
REMARK  237  A    between atoms: _596  and  _599
REMARK  238  A    between atoms: _599  and  _600
REMARK  239  A    between atoms: _600  and  _601
REMARK  240  A    between atoms: _601  and  _602
REMARK  241  A    between atoms: _611  and  _613
REMARK  242  A    between atoms: _613  and  _614
REMARK  243  A    between atoms: _613  and  _616
REMARK  244  A    between atoms: _616  and  _617
REMARK  245  A    between atoms: _617  and  _618
REMARK  246  A    between atoms: _620  and  _622
REMARK  247  A    between atoms: _622  and  _623
REMARK  248  A    between atoms: _622  and  _625
REMARK  249  A    between atoms: _628  and  _630
REMARK  250  A    between atoms: _630  and  _631
REMARK  251  A    between atoms: _630  and  _633
REMARK  252  A    between atoms: _633  and  _634
REMARK                            x       y       z     vdW  Elec       q    Type
REMARK                         _______ _______ _______ _____ _____    ______ ____
ROOT
ATOM      1  CB  ASN A   1      39.565  92.400  -6.372  0.00  0.00    +0.110 C 
ENDROOT
BRANCH   1   2
ATOM      2  CG  ASN A   1      39.280  91.394  -5.253  0.00  0.00    +0.221 C 
ATOM      3  ND2 ASN A   1      40.332  90.896  -4.646  0.00  0.00    -0.329 N 
ATOM      4 HD21 ASN A   1      40.210  90.223  -3.863  0.00  0.00    +0.145 HD
ATOM      5 HD22 ASN A   1      41.287  91.175  -4.948  0.00  0.00    +0.145 HD
ATOM      6  OD1 ASN A   1      38.110  91.091  -4.928  0.00  0.00    -0.275 OA
ENDBRANCH   1   2
BRANCH   1   7
ATOM      7  CA  ASN A   1      38.277  92.913  -7.026  0.00  0.00    +0.142 C 
BRANCH   7   8
ATOM      8  N   ASN A   1      37.552  91.786  -7.617  0.00  0.00    -0.239 NA
ATOM      9  H   ASN A   1      38.079  90.971  -7.991  0.00  0.00    +0.142 HD
ENDBRANCH   7   8
BRANCH   7  10
ATOM     10  C   ASN A   1      38.543  94.076  -7.987  0.00  0.00    +0.225 C 
ATOM     11  O   ASN A   1      38.660  95.230  -7.572  0.00  0.00    -0.287 OA
ENDBRANCH   7  10
ENDBRANCH   1   7
TORSDOF 4
REMARK  Name = ../refined-set-2016/3fh7/3fh7_pocket.pdb
REMARK  252 active torsions:
REMARK  status: ('A' for Active; 'I' for Inactive)
REMARK    1  A    between atoms: _1  and  _3
REMARK    2  A    between atoms: _3  and  _4
REMARK    3  A    between atoms: _3  and  _6
REMARK    4  A    between atoms: _8  and  _10
REMARK    5  A    between atoms: _10  and  _11
REMARK    6  A    between atoms: _10  and  _13
REMARK    7  A    between atoms: _13  and  _14
REMARK    8  A    between atoms: _16  and  _18
REMARK    9  A    between atoms: _18  and  _19
REMARK   10  A    between atoms: _18  and  _21
REMARK   11  A    between atoms: _21  and  _22
REMARK   12  A    between atoms: _22  and  _23
REMARK   13  A    between atoms: _28  and  _30
REMARK   14  A    between atoms: _30  and  _31
REMARK   15  A    between atoms: _30  and  _33
REMARK   16  A    between atoms: _35  and  _37
REMARK   17  A    between atoms: _37  and  _38
REMARK   18  A    between atoms: _37  and  _40
REMARK   19  A    between atoms: _40  and  _41
REMARK   20  A    between atoms: _41  and  _42
REMARK   21  A    between atoms: _47  and  _49
REMARK   22  A    between atoms: _49  and  _50
REMARK   23  A    between atoms: _53  and  _55
REMARK   24  A    between atoms: _55  and  _56
REMARK   25  A    between atoms: _55  and  _58
REMARK   26  A    between atoms: _58  and  _59
REMARK   27  A    between atoms: _62  and  _64
REMARK   28  A    between atoms: _64  and  _65
REMARK   29  A    between atoms: _64  and  _67
REMARK   30  A    between atoms: _67  and  _68
REMARK   31  A    between atoms: _73  and  _75
REMARK   32  A    between atoms: _75  and  _76
REMARK   33  A    between atoms: _75  and  _78
REMARK   34  A    between atoms: _78  and  _79
REMARK   35  A    between atoms: _84  and  _85
REMARK   36  A    between atoms: _87  and  _89
REMARK   37  A    between atoms: _89  and  _90
REMARK   38  A    between atoms: _89  and  _92
REMARK   39  A    between atoms: _92  and  _93
REMARK   40  A    between atoms: _100  and  _101
REMARK   41  A    between atoms: _106  and  _108
REMARK   42  A    between atoms: _108  and  _109
REMARK   43  A    between atoms: _108  and  _111
REMARK   44  A    between atoms: _111  and  _112
REMARK   45  A    between atoms: _117  and  _118
REMARK   46  A    between atoms: _120  and  _122
REMARK   47  A    between atoms: _122  and  _123
REMARK   48  A    between atoms: _125  and  _127
REMARK   49  A    between atoms: _127  and  _128
REMARK   50  A    between atoms: _130  and  _132
REMARK   51  A    between atoms: _132  and  _133
REMARK   52  A    between atoms: _132  and  _135
REMARK   53  A    between atoms: _135  and  _136
REMARK   54  A    between atoms: _136  and  _137
REMARK   55  A    between atoms: _139  and  _141
REMARK   56  A    between atoms: _141  and  _142
REMARK   57  A    between atoms: _141  and  _144
REMARK   58  A    between atoms: _144  and  _145
REMARK   59  A    between atoms: _145  and  _146
REMARK   60  A    between atoms: _149  and  _151
REMARK   61  A    between atoms: _151  and  _152
REMARK   62  A    between atoms: _151  and  _154
REMARK   63  A    between atoms: _154  and  _155
REMARK   64  A    between atoms: _160  and  _162
REMARK   65  A    between atoms: _162  and  _163
REMARK   66  A    between atoms: _162  and  _165
REMARK   67  A    between atoms: _165  and  _166
REMARK   68  A    between atoms: _169  and  _171
REMARK   69  A    between atoms: _171  and  _172
REMARK   70  A    between atoms: _171  and  _174
REMARK   71  A    between atoms: _174  and  _175
REMARK   72  A    between atoms: _181  and  _183
REMARK   73  A    between atoms: _183  and  _184
REMARK   74  A    between atoms: _183  and  _186
REMARK   75  A    between atoms: _189  and  _191
REMARK   76  A    between atoms: _191  and  _192
REMARK   77  A    between atoms: _191  and  _194
REMARK   78  A    between atoms: _194  and  _195
REMARK   79  A    between atoms: _199  and  ZN_637
REMARK   80  A    between atoms: _200  and  _202
REMARK   81  A    between atoms: _202  and  _203
REMARK   82  A    between atoms: _202  and  _205
REMARK   83  A    between atoms: _205  and  _206
REMARK   84  A    between atoms: _206  and  _207
REMARK   85  A    between atoms: _210  and  _212
REMARK   86  A    between atoms: _212  and  _213
REMARK   87  A    between atoms: _212  and  _215
REMARK   88  A    between atoms: _215  and  _216
REMARK   89  A    between atoms: _219  and  _221
REMARK   90  A    between atoms: _221  and  _222
REMARK   91  A    between atoms: _221  and  _224
REMARK   92  A    between atoms: _224  and  _225
REMARK   93  A    between atoms: _229  and  ZN_637
REMARK   94  A    between atoms: _230  and  _232
REMARK   95  A    between atoms: _232  and  _233
REMARK   96  A    between atoms: _232  and  _235
REMARK   97  A    between atoms: _235  and  _236
REMARK   98  A    between atoms: _239  and  _241
REMARK   99  A    between atoms: _241  and  _242
REMARK  100  A    between atoms: _241  and  _244
REMARK  101  A    between atoms: _244  and  _245
REMARK  102  A    between atoms: _250  and  _252
REMARK  103  A    between atoms: _252  and  _253
REMARK  104  A    between atoms: _252  and  _255
REMARK  105  A    between atoms: _255  and  _256
REMARK  106  A    between atoms: _261  and  _263
REMARK  107  A    between atoms: _263  and  _264
REMARK  108  A    between atoms: _263  and  _266
REMARK  109  A    between atoms: _266  and  _267
REMARK  110  A    between atoms: _270  and  _272
REMARK  111  A    between atoms: _272  and  _273
REMARK  112  A    between atoms: _272  and  _275
REMARK  113  A    between atoms: _275  and  _276
REMARK  114  A    between atoms: _286  and  _288
REMARK  115  A    between atoms: _288  and  _289
REMARK  116  A    between atoms: _288  and  _291
REMARK  117  A    between atoms: _291  and  _292
REMARK  118  A    between atoms: _295  and  _297
REMARK  119  A    between atoms: _297  and  _298
REMARK  120  A    between atoms: _297  and  _300
REMARK  121  A    between atoms: _300  and  _301
REMARK  122  A    between atoms: _306  and  _308
REMARK  123  A    between atoms: _308  and  _309
REMARK  124  A    between atoms: _308  and  _311
REMARK  125  A    between atoms: _311  and  _312
REMARK  126  A    between atoms: _318  and  _320
REMARK  127  A    between atoms: _320  and  _321
REMARK  128  A    between atoms: _320  and  _323
REMARK  129  A    between atoms: _323  and  _324
REMARK  130  A    between atoms: _334  and  _336
REMARK  131  A    between atoms: _336  and  _337
REMARK  132  A    between atoms: _336  and  _339
REMARK  133  A    between atoms: _339  and  _340
REMARK  134  A    between atoms: _343  and  _345
REMARK  135  A    between atoms: _345  and  _346
REMARK  136  A    between atoms: _345  and  _348
REMARK  137  A    between atoms: _348  and  _349
REMARK  138  A    between atoms: _354  and  _356
REMARK  139  A    between atoms: _356  and  _357
REMARK  140  A    between atoms: _356  and  _359
REMARK  141  A    between atoms: _359  and  _360
REMARK  142  A    between atoms: _360  and  _361
REMARK  143  A    between atoms: _361  and  _362
REMARK  144  A    between atoms: _362  and  ZN_637
REMARK  145  A    between atoms: _364  and  _366
REMARK  146  A    between atoms: _366  and  _367
REMARK  147  A    between atoms: _366  and  _369
REMARK  148  A    between atoms: _369  and  _370
REMARK  149  A    between atoms: _373  and  _375
REMARK  150  A    between atoms: _375  and  _376
REMARK  151  A    between atoms: _375  and  _378
REMARK  152  A    between atoms: _381  and  _383
REMARK  153  A    between atoms: _383  and  _384
REMARK  154  A    between atoms: _383  and  _386
REMARK  155  A    between atoms: _386  and  _387
REMARK  156  A    between atoms: _387  and  _388
REMARK  157  A    between atoms: _391  and  _393
REMARK  158  A    between atoms: _393  and  _394
REMARK  159  A    between atoms: _393  and  _396
REMARK  160  A    between atoms: _396  and  _397
REMARK  161  A    between atoms: _404  and  _405
REMARK  162  A    between atoms: _410  and  _412
REMARK  163  A    between atoms: _412  and  _413
REMARK  164  A    between atoms: _412  and  _415
REMARK  165  A    between atoms: _415  and  _416
REMARK  166  A    between atoms: _422  and  _424
REMARK  167  A    between atoms: _424  and  _425
REMARK  168  A    between atoms: _424  and  _427
REMARK  169  A    between atoms: _427  and  _428
REMARK  170  A    between atoms: _431  and  _433
REMARK  171  A    between atoms: _433  and  _434
REMARK  172  A    between atoms: _433  and  _436
REMARK  173  A    between atoms: _436  and  _437
REMARK  174  A    between atoms: _437  and  _438
REMARK  175  A    between atoms: _438  and  _439
REMARK  176  A    between atoms: _439  and  _440
REMARK  177  A    between atoms: _444  and  _446
REMARK  178  A    between atoms: _446  and  _447
REMARK  179  A    between atoms: _446  and  _449
REMARK  180  A    between atoms: _449  and  _450
REMARK  181  A    between atoms: _453  and  _455
REMARK  182  A    between atoms: _455  and  _456
REMARK  183  A    between atoms: _455  and  _458
REMARK  184  A    between atoms: _461  and  _463
REMARK  185  A    between atoms: _463  and  _464
REMARK  186  A    between atoms: _463  and  _466
REMARK  187  A    between atoms: _469  and  _471
REMARK  188  A    between atoms: _471  and  _472
REMARK  189  A    between atoms: _471  and  _474
REMARK  190  A    between atoms: _474  and  _475
REMARK  191  A    between atoms: _478  and  _480
REMARK  192  A    between atoms: _480  and  _481
REMARK  193  A    between atoms: _480  and  _483
REMARK  194  A    between atoms: _483  and  _484
REMARK  195  A    between atoms: _487  and  _489
REMARK  196  A    between atoms: _489  and  _490
REMARK  197  A    between atoms: _489  and  _492
REMARK  198  A    between atoms: _492  and  _493
REMARK  199  A    between atoms: _496  and  _498
REMARK  200  A    between atoms: _498  and  _499
REMARK  201  A    between atoms: _498  and  _501
REMARK  202  A    between atoms: _501  and  _502
REMARK  203  A    between atoms: _506  and  _507
REMARK  204  A    between atoms: _512  and  _514
REMARK  205  A    between atoms: _514  and  _515
REMARK  206  A    between atoms: _514  and  _517
REMARK  207  A    between atoms: _517  and  _518
REMARK  208  A    between atoms: _521  and  _523
REMARK  209  A    between atoms: _523  and  _524
REMARK  210  A    between atoms: _523  and  _526
REMARK  211  A    between atoms: _529  and  _531
REMARK  212  A    between atoms: _531  and  _532
REMARK  213  A    between atoms: _535  and  _537
REMARK  214  A    between atoms: _537  and  _538
REMARK  215  A    between atoms: _537  and  _540
REMARK  216  A    between atoms: _540  and  _541
REMARK  217  A    between atoms: _546  and  _547
REMARK  218  A    between atoms: _549  and  _551
REMARK  219  A    between atoms: _551  and  _552
REMARK  220  A    between atoms: _551  and  _554
REMARK  221  A    between atoms: _554  and  _555
REMARK  222  A    between atoms: _557  and  _559
REMARK  223  A    between atoms: _559  and  _560
REMARK  224  A    between atoms: _559  and  _562
REMARK  225  A    between atoms: _562  and  _563
REMARK  226  A    between atoms: _565  and  _567
REMARK  227  A    between atoms: _567  and  _568
REMARK  228  A    between atoms: _567  and  _570
REMARK  229  A    between atoms: _574  and  _575
REMARK  230  A    between atoms: _580  and  _582
REMARK  231  A    between atoms: _582  and  _583
REMARK  232  A    between atoms: _582  and  _585
REMARK  233  A    between atoms: _585  and  _586
REMARK  234  A    between atoms: _591  and  _592
REMARK  235  A    between atoms: _594  and  _596
REMARK  236  A    between atoms: _596  and  _597
REMARK  237  A    between atoms: _596  and  _599
REMARK  238  A    between atoms: _599  and  _600
REMARK  239  A    between atoms: _600  and  _601
REMARK  240  A    between atoms: _601  and  _602
REMARK  241  A    between atoms: _611  and  _613
REMARK  242  A    between atoms: _613  and  _614
REMARK  243  A    between atoms: _613  and  _616
REMARK  244  A    between atoms: _616  and  _617
REMARK  245  A    between atoms: _617  and  _618
REMARK  246  A    between atoms: _620  and  _622
REMARK  247  A    between atoms: _622  and  _623
REMARK  248  A    between atoms: _622  and  _625
REMARK  249  A    between atoms: _628  and  _630
REMARK  250  A    between atoms: _630  and  _631
REMARK  251  A    between atoms: _630  and  _633
REMARK  252  A    between atoms: _633  and  _634
REMARK                            x       y       z     vdW  Elec       q    Type
REMARK                         _______ _______ _______ _____ _____    ______ ____
ROOT
ATOM      1  CB  ASN A   1      28.616  92.055  -8.148  0.00  0.00    +0.110 C 
ENDROOT
BRANCH   1   2
ATOM      2  CG  ASN A   1      29.155  91.664  -6.737  0.00  0.00    +0.221 C 
ATOM      3  OD1 ASN A   1      29.734  92.463  -6.011  0.00  0.00    -0.275 OA
ATOM      4  ND2 ASN A   1      28.932  90.407  -6.361  0.00  0.00    -0.329 N 
ATOM      5 HD21 ASN A   1      29.252  90.079  -5.428  0.00  0.00    +0.145 HD
ATOM      6 HD22 ASN A   1      28.437  89.753  -7.001  0.00  0.00    +0.145 HD
ENDBRANCH   1   2
BRANCH   1   7
ATOM      7  CA  ASN A   1      29.285  93.324  -8.750  0.00  0.00    +0.142 C 
BRANCH   7   8
ATOM      8  N   ASN A   1      30.736  93.265  -8.715  0.00  0.00    -0.239 NA
ATOM      9  H   ASN A   1      31.205  92.507  -8.179  0.00  0.00    +0.142 HD
ENDBRANCH   7   8
BRANCH   7  10
ATOM     10  C   ASN A   1      28.758  94.625  -8.124  0.00  0.00    +0.225 C 
ATOM     11  O   ASN A   1      29.189  95.034  -7.052  0.00  0.00    -0.287 OA
ENDBRANCH   7  10
ENDBRANCH   1   7
TORSDOF 4
REMARK  Name = ../refined-set-2016/3fh7/3fh7_pocket.pdb
REMARK  252 active torsions:
REMARK  status: ('A' for Active; 'I' for Inactive)
REMARK    1  A    between atoms: _1  and  _3
REMARK    2  A    between atoms: _3  and  _4
REMARK    3  A    between atoms: _3  and  _6
REMARK    4  A    between atoms: _8  and  _10
REMARK    5  A    between atoms: _10  and  _11
REMARK    6  A    between atoms: _10  and  _13
REMARK    7  A    between atoms: _13  and  _14
REMARK    8  A    between atoms: _16  and  _18
REMARK    9  A    between atoms: _18  and  _19
REMARK   10  A    between atoms: _18  and  _21
REMARK   11  A    between atoms: _21  and  _22
REMARK   12  A    between atoms: _22  and  _23
REMARK   13  A    between atoms: _28  and  _30
REMARK   14  A    between atoms: _30  and  _31
REMARK   15  A    between atoms: _30  and  _33
REMARK   16  A    between atoms: _35  and  _37
REMARK   17  A    between atoms: _37  and  _38
REMARK   18  A    between atoms: _37  and  _40
REMARK   19  A    between atoms: _40  and  _41
REMARK   20  A    between atoms: _41  and  _42
REMARK   21  A    between atoms: _47  and  _49
REMARK   22  A    between atoms: _49  and  _50
REMARK   23  A    between atoms: _53  and  _55
REMARK   24  A    between atoms: _55  and  _56
REMARK   25  A    between atoms: _55  and  _58
REMARK   26  A    between atoms: _58  and  _59
REMARK   27  A    between atoms: _62  and  _64
REMARK   28  A    between atoms: _64  and  _65
REMARK   29  A    between atoms: _64  and  _67
REMARK   30  A    between atoms: _67  and  _68
REMARK   31  A    between atoms: _73  and  _75
REMARK   32  A    between atoms: _75  and  _76
REMARK   33  A    between atoms: _75  and  _78
REMARK   34  A    between atoms: _78  and  _79
REMARK   35  A    between atoms: _84  and  _85
REMARK   36  A    between atoms: _87  and  _89
REMARK   37  A    between atoms: _89  and  _90
REMARK   38  A    between atoms: _89  and  _92
REMARK   39  A    between atoms: _92  and  _93
REMARK   40  A    between atoms: _100  and  _101
REMARK   41  A    between atoms: _106  and  _108
REMARK   42  A    between atoms: _108  and  _109
REMARK   43  A    between atoms: _108  and  _111
REMARK   44  A    between atoms: _111  and  _112
REMARK   45  A    between atoms: _117  and  _118
REMARK   46  A    between atoms: _120  and  _122
REMARK   47  A    between atoms: _122  and  _123
REMARK   48  A    between atoms: _125  and  _127
REMARK   49  A    between atoms: _127  and  _128
REMARK   50  A    between atoms: _130  and  _132
REMARK   51  A    between atoms: _132  and  _133
REMARK   52  A    between atoms: _132  and  _135
REMARK   53  A    between atoms: _135  and  _136
REMARK   54  A    between atoms: _136  and  _137
REMARK   55  A    between atoms: _139  and  _141
REMARK   56  A    between atoms: _141  and  _142
REMARK   57  A    between atoms: _141  and  _144
REMARK   58  A    between atoms: _144  and  _145
REMARK   59  A    between atoms: _145  and  _146
REMARK   60  A    between atoms: _149  and  _151
REMARK   61  A    between atoms: _151  and  _152
REMARK   62  A    between atoms: _151  and  _154
REMARK   63  A    between atoms: _154  and  _155
REMARK   64  A    between atoms: _160  and  _162
REMARK   65  A    between atoms: _162  and  _163
REMARK   66  A    between atoms: _162  and  _165
REMARK   67  A    between atoms: _165  and  _166
REMARK   68  A    between atoms: _169  and  _171
REMARK   69  A    between atoms: _171  and  _172
REMARK   70  A    between atoms: _171  and  _174
REMARK   71  A    between atoms: _174  and  _175
REMARK   72  A    between atoms: _181  and  _183
REMARK   73  A    between atoms: _183  and  _184
REMARK   74  A    between atoms: _183  and  _186
REMARK   75  A    between atoms: _189  and  _191
REMARK   76  A    between atoms: _191  and  _192
REMARK   77  A    between atoms: _191  and  _194
REMARK   78  A    between atoms: _194  and  _195
REMARK   79  A    between atoms: _199  and  ZN_637
REMARK   80  A    between atoms: _200  and  _202
REMARK   81  A    between atoms: _202  and  _203
REMARK   82  A    between atoms: _202  and  _205
REMARK   83  A    between atoms: _205  and  _206
REMARK   84  A    between atoms: _206  and  _207
REMARK   85  A    between atoms: _210  and  _212
REMARK   86  A    between atoms: _212  and  _213
REMARK   87  A    between atoms: _212  and  _215
REMARK   88  A    between atoms: _215  and  _216
REMARK   89  A    between atoms: _219  and  _221
REMARK   90  A    between atoms: _221  and  _222
REMARK   91  A    between atoms: _221  and  _224
REMARK   92  A    between atoms: _224  and  _225
REMARK   93  A    between atoms: _229  and  ZN_637
REMARK   94  A    between atoms: _230  and  _232
REMARK   95  A    between atoms: _232  and  _233
REMARK   96  A    between atoms: _232  and  _235
REMARK   97  A    between atoms: _235  and  _236
REMARK   98  A    between atoms: _239  and  _241
REMARK   99  A    between atoms: _241  and  _242
REMARK  100  A    between atoms: _241  and  _244
REMARK  101  A    between atoms: _244  and  _245
REMARK  102  A    between atoms: _250  and  _252
REMARK  103  A    between atoms: _252  and  _253
REMARK  104  A    between atoms: _252  and  _255
REMARK  105  A    between atoms: _255  and  _256
REMARK  106  A    between atoms: _261  and  _263
REMARK  107  A    between atoms: _263  and  _264
REMARK  108  A    between atoms: _263  and  _266
REMARK  109  A    between atoms: _266  and  _267
REMARK  110  A    between atoms: _270  and  _272
REMARK  111  A    between atoms: _272  and  _273
REMARK  112  A    between atoms: _272  and  _275
REMARK  113  A    between atoms: _275  and  _276
REMARK  114  A    between atoms: _286  and  _288
REMARK  115  A    between atoms: _288  and  _289
REMARK  116  A    between atoms: _288  and  _291
REMARK  117  A    between atoms: _291  and  _292
REMARK  118  A    between atoms: _295  and  _297
REMARK  119  A    between atoms: _297  and  _298
REMARK  120  A    between atoms: _297  and  _300
REMARK  121  A    between atoms: _300  and  _301
REMARK  122  A    between atoms: _306  and  _308
REMARK  123  A    between atoms: _308  and  _309
REMARK  124  A    between atoms: _308  and  _311
REMARK  125  A    between atoms: _311  and  _312
REMARK  126  A    between atoms: _318  and  _320
REMARK  127  A    between atoms: _320  and  _321
REMARK  128  A    between atoms: _320  and  _323
REMARK  129  A    between atoms: _323  and  _324
REMARK  130  A    between atoms: _334  and  _336
REMARK  131  A    between atoms: _336  and  _337
REMARK  132  A    between atoms: _336  and  _339
REMARK  133  A    between atoms: _339  and  _340
REMARK  134  A    between atoms: _343  and  _345
REMARK  135  A    between atoms: _345  and  _346
REMARK  136  A    between atoms: _345  and  _348
REMARK  137  A    between atoms: _348  and  _349
REMARK  138  A    between atoms: _354  and  _356
REMARK  139  A    between atoms: _356  and  _357
REMARK  140  A    between atoms: _356  and  _359
REMARK  141  A    between atoms: _359  and  _360
REMARK  142  A    between atoms: _360  and  _361
REMARK  143  A    between atoms: _361  and  _362
REMARK  144  A    between atoms: _362  and  ZN_637
REMARK  145  A    between atoms: _364  and  _366
REMARK  146  A    between atoms: _366  and  _367
REMARK  147  A    between atoms: _366  and  _369
REMARK  148  A    between atoms: _369  and  _370
REMARK  149  A    between atoms: _373  and  _375
REMARK  150  A    between atoms: _375  and  _376
REMARK  151  A    between atoms: _375  and  _378
REMARK  152  A    between atoms: _381  and  _383
REMARK  153  A    between atoms: _383  and  _384
REMARK  154  A    between atoms: _383  and  _386
REMARK  155  A    between atoms: _386  and  _387
REMARK  156  A    between atoms: _387  and  _388
REMARK  157  A    between atoms: _391  and  _393
REMARK  158  A    between atoms: _393  and  _394
REMARK  159  A    between atoms: _393  and  _396
REMARK  160  A    between atoms: _396  and  _397
REMARK  161  A    between atoms: _404  and  _405
REMARK  162  A    between atoms: _410  and  _412
REMARK  163  A    between atoms: _412  and  _413
REMARK  164  A    between atoms: _412  and  _415
REMARK  165  A    between atoms: _415  and  _416
REMARK  166  A    between atoms: _422  and  _424
REMARK  167  A    between atoms: _424  and  _425
REMARK  168  A    between atoms: _424  and  _427
REMARK  169  A    between atoms: _427  and  _428
REMARK  170  A    between atoms: _431  and  _433
REMARK  171  A    between atoms: _433  and  _434
REMARK  172  A    between atoms: _433  and  _436
REMARK  173  A    between atoms: _436  and  _437
REMARK  174  A    between atoms: _437  and  _438
REMARK  175  A    between atoms: _438  and  _439
REMARK  176  A    between atoms: _439  and  _440
REMARK  177  A    between atoms: _444  and  _446
REMARK  178  A    between atoms: _446  and  _447
REMARK  179  A    between atoms: _446  and  _449
REMARK  180  A    between atoms: _449  and  _450
REMARK  181  A    between atoms: _453  and  _455
REMARK  182  A    between atoms: _455  and  _456
REMARK  183  A    between atoms: _455  and  _458
REMARK  184  A    between atoms: _461  and  _463
REMARK  185  A    between atoms: _463  and  _464
REMARK  186  A    between atoms: _463  and  _466
REMARK  187  A    between atoms: _469  and  _471
REMARK  188  A    between atoms: _471  and  _472
REMARK  189  A    between atoms: _471  and  _474
REMARK  190  A    between atoms: _474  and  _475
REMARK  191  A    between atoms: _478  and  _480
REMARK  192  A    between atoms: _480  and  _481
REMARK  193  A    between atoms: _480  and  _483
REMARK  194  A    between atoms: _483  and  _484
REMARK  195  A    between atoms: _487  and  _489
REMARK  196  A    between atoms: _489  and  _490
REMARK  197  A    between atoms: _489  and  _492
REMARK  198  A    between atoms: _492  and  _493
REMARK  199  A    between atoms: _496  and  _498
REMARK  200  A    between atoms: _498  and  _499
REMARK  201  A    between atoms: _498  and  _501
REMARK  202  A    between atoms: _501  and  _502
REMARK  203  A    between atoms: _506  and  _507
REMARK  204  A    between atoms: _512  and  _514
REMARK  205  A    between atoms: _514  and  _515
REMARK  206  A    between atoms: _514  and  _517
REMARK  207  A    between atoms: _517  and  _518
REMARK  208  A    between atoms: _521  and  _523
REMARK  209  A    between atoms: _523  and  _524
REMARK  210  A    between atoms: _523  and  _526
REMARK  211  A    between atoms: _529  and  _531
REMARK  212  A    between atoms: _531  and  _532
REMARK  213  A    between atoms: _535  and  _537
REMARK  214  A    between atoms: _537  and  _538
REMARK  215  A    between atoms: _537  and  _540
REMARK  216  A    between atoms: _540  and  _541
REMARK  217  A    between atoms: _546  and  _547
REMARK  218  A    between atoms: _549  and  _551
REMARK  219  A    between atoms: _551  and  _552
REMARK  220  A    between atoms: _551  and  _554
REMARK  221  A    between atoms: _554  and  _555
REMARK  222  A    between atoms: _557  and  _559
REMARK  223  A    between atoms: _559  and  _560
REMARK  224  A    between atoms: _559  and  _562
REMARK  225  A    between atoms: _562  and  _563
REMARK  226  A    between atoms: _565  and  _567
REMARK  227  A    between atoms: _567  and  _568
REMARK  228  A    between atoms: _567  and  _570
REMARK  229  A    between atoms: _574  and  _575
REMARK  230  A    between atoms: _580  and  _582
REMARK  231  A    between atoms: _582  and  _583
REMARK  232  A    between atoms: _582  and  _585
REMARK  233  A    between atoms: _585  and  _586
REMARK  234  A    between atoms: _591  and  _592
REMARK  235  A    between atoms: _594  and  _596
REMARK  236  A    between atoms: _596  and  _597
REMARK  237  A    between atoms: _596  and  _599
REMARK  238  A    between atoms: _599  and  _600
REMARK  239  A    between atoms: _600  and  _601
REMARK  240  A    between atoms: _601  and  _602
REMARK  241  A    between atoms: _611  and  _613
REMARK  242  A    between atoms: _613  and  _614
REMARK  243  A    between atoms: _613  and  _616
REMARK  244  A    between atoms: _616  and  _617
REMARK  245  A    between atoms: _617  and  _618
REMARK  246  A    between atoms: _620  and  _622
REMARK  247  A    between atoms: _622  and  _623
REMARK  248  A    between atoms: _622  and  _625
REMARK  249  A    between atoms: _628  and  _630
REMARK  250  A    between atoms: _630  and  _631
REMARK  251  A    between atoms: _630  and  _633
REMARK  252  A    between atoms: _633  and  _634
REMARK                            x       y       z     vdW  Elec       q    Type
REMARK                         _______ _______ _______ _____ _____    ______ ____
ROOT
ATOM      1  C   THR A   1      36.336  81.975 -11.023  0.00  0.00    +0.241 C 
ATOM      2  N   VAL A   2      35.233  81.228 -10.916  0.00  0.00    -0.298 N 
ATOM      3  H   VAL A   2      34.321  81.692 -10.727  0.00  0.00    +0.150 HD
ATOM      4  O   THR A   1      37.456  81.507 -11.145  0.00  0.00    -0.274 OA
ENDROOT
BRANCH   1   5
ATOM      5  CA  THR A   1      36.154  83.480 -10.994  0.00  0.00    +0.172 C 
BRANCH   5   6
ATOM      6  N   THR A   1      35.003  83.891 -11.789  0.00  0.00    -0.236 NA
ATOM      7  H   THR A   1      34.140  84.215 -11.308  0.00  0.00    +0.142 HD
ENDBRANCH   5   6
BRANCH   5   8
ATOM      8  CB  THR A   1      36.028  84.004  -9.547  0.00  0.00    +0.135 C 
ATOM      9  CG2 THR A   1      37.135  83.459  -8.677  0.00  0.00    +0.034 C 
BRANCH   8  10
ATOM     10  OG1 THR A   1      36.101  85.443  -9.575  0.00  0.00    -0.383 OA
ATOM     11  HG1 THR A   1      36.022  85.794  -8.653  0.00  0.00    +0.210 HD
ENDBRANCH   8  10
ENDBRANCH   5   8
ENDBRANCH   1   5
BRANCH   2  12
ATOM     12  CA  VAL A   2      35.279  79.775 -11.058  0.00  0.00    +0.137 C 
BRANCH  12  13
ATOM     13  CB  VAL A   2      33.920  79.083 -10.763  0.00  0.00    +0.026 C 
ATOM     14  CG2 VAL A   2      33.508  79.312  -9.315  0.00  0.00    +0.002 C 
ATOM     15  CG1 VAL A   2      34.005  77.556 -11.017  0.00  0.00    +0.002 C 
ENDBRANCH  12  13
BRANCH  12  16
ATOM     16  C   VAL A   2      35.738  79.459 -12.464  0.00  0.00    +0.227 C 
ATOM     17  O   VAL A   2      36.535  78.542 -12.665  0.00  0.00    -0.286 OA
ENDBRANCH  12  16
ENDBRANCH   2  12
TORSDOF 7
REMARK  Name = ../refined-set-2016/3fh7/3fh7_pocket.pdb
REMARK  252 active torsions:
REMARK  status: ('A' for Active; 'I' for Inactive)
REMARK    1  A    between atoms: _1  and  _3
REMARK    2  A    between atoms: _3  and  _4
REMARK    3  A    between atoms: _3  and  _6
REMARK    4  A    between atoms: _8  and  _10
REMARK    5  A    between atoms: _10  and  _11
REMARK    6  A    between atoms: _10  and  _13
REMARK    7  A    between atoms: _13  and  _14
REMARK    8  A    between atoms: _16  and  _18
REMARK    9  A    between atoms: _18  and  _19
REMARK   10  A    between atoms: _18  and  _21
REMARK   11  A    between atoms: _21  and  _22
REMARK   12  A    between atoms: _22  and  _23
REMARK   13  A    between atoms: _28  and  _30
REMARK   14  A    between atoms: _30  and  _31
REMARK   15  A    between atoms: _30  and  _33
REMARK   16  A    between atoms: _35  and  _37
REMARK   17  A    between atoms: _37  and  _38
REMARK   18  A    between atoms: _37  and  _40
REMARK   19  A    between atoms: _40  and  _41
REMARK   20  A    between atoms: _41  and  _42
REMARK   21  A    between atoms: _47  and  _49
REMARK   22  A    between atoms: _49  and  _50
REMARK   23  A    between atoms: _53  and  _55
REMARK   24  A    between atoms: _55  and  _56
REMARK   25  A    between atoms: _55  and  _58
REMARK   26  A    between atoms: _58  and  _59
REMARK   27  A    between atoms: _62  and  _64
REMARK   28  A    between atoms: _64  and  _65
REMARK   29  A    between atoms: _64  and  _67
REMARK   30  A    between atoms: _67  and  _68
REMARK   31  A    between atoms: _73  and  _75
REMARK   32  A    between atoms: _75  and  _76
REMARK   33  A    between atoms: _75  and  _78
REMARK   34  A    between atoms: _78  and  _79
REMARK   35  A    between atoms: _84  and  _85
REMARK   36  A    between atoms: _87  and  _89
REMARK   37  A    between atoms: _89  and  _90
REMARK   38  A    between atoms: _89  and  _92
REMARK   39  A    between atoms: _92  and  _93
REMARK   40  A    between atoms: _100  and  _101
REMARK   41  A    between atoms: _106  and  _108
REMARK   42  A    between atoms: _108  and  _109
REMARK   43  A    between atoms: _108  and  _111
REMARK   44  A    between atoms: _111  and  _112
REMARK   45  A    between atoms: _117  and  _118
REMARK   46  A    between atoms: _120  and  _122
REMARK   47  A    between atoms: _122  and  _123
REMARK   48  A    between atoms: _125  and  _127
REMARK   49  A    between atoms: _127  and  _128
REMARK   50  A    between atoms: _130  and  _132
REMARK   51  A    between atoms: _132  and  _133
REMARK   52  A    between atoms: _132  and  _135
REMARK   53  A    between atoms: _135  and  _136
REMARK   54  A    between atoms: _136  and  _137
REMARK   55  A    between atoms: _139  and  _141
REMARK   56  A    between atoms: _141  and  _142
REMARK   57  A    between atoms: _141  and  _144
REMARK   58  A    between atoms: _144  and  _145
REMARK   59  A    between atoms: _145  and  _146
REMARK   60  A    between atoms: _149  and  _151
REMARK   61  A    between atoms: _151  and  _152
REMARK   62  A    between atoms: _151  and  _154
REMARK   63  A    between atoms: _154  and  _155
REMARK   64  A    between atoms: _160  and  _162
REMARK   65  A    between atoms: _162  and  _163
REMARK   66  A    between atoms: _162  and  _165
REMARK   67  A    between atoms: _165  and  _166
REMARK   68  A    between atoms: _169  and  _171
REMARK   69  A    between atoms: _171  and  _172
REMARK   70  A    between atoms: _171  and  _174
REMARK   71  A    between atoms: _174  and  _175
REMARK   72  A    between atoms: _181  and  _183
REMARK   73  A    between atoms: _183  and  _184
REMARK   74  A    between atoms: _183  and  _186
REMARK   75  A    between atoms: _189  and  _191
REMARK   76  A    between atoms: _191  and  _192
REMARK   77  A    between atoms: _191  and  _194
REMARK   78  A    between atoms: _194  and  _195
REMARK   79  A    between atoms: _199  and  ZN_637
REMARK   80  A    between atoms: _200  and  _202
REMARK   81  A    between atoms: _202  and  _203
REMARK   82  A    between atoms: _202  and  _205
REMARK   83  A    between atoms: _205  and  _206
REMARK   84  A    between atoms: _206  and  _207
REMARK   85  A    between atoms: _210  and  _212
REMARK   86  A    between atoms: _212  and  _213
REMARK   87  A    between atoms: _212  and  _215
REMARK   88  A    between atoms: _215  and  _216
REMARK   89  A    between atoms: _219  and  _221
REMARK   90  A    between atoms: _221  and  _222
REMARK   91  A    between atoms: _221  and  _224
REMARK   92  A    between atoms: _224  and  _225
REMARK   93  A    between atoms: _229  and  ZN_637
REMARK   94  A    between atoms: _230  and  _232
REMARK   95  A    between atoms: _232  and  _233
REMARK   96  A    between atoms: _232  and  _235
REMARK   97  A    between atoms: _235  and  _236
REMARK   98  A    between atoms: _239  and  _241
REMARK   99  A    between atoms: _241  and  _242
REMARK  100  A    between atoms: _241  and  _244
REMARK  101  A    between atoms: _244  and  _245
REMARK  102  A    between atoms: _250  and  _252
REMARK  103  A    between atoms: _252  and  _253
REMARK  104  A    between atoms: _252  and  _255
REMARK  105  A    between atoms: _255  and  _256
REMARK  106  A    between atoms: _261  and  _263
REMARK  107  A    between atoms: _263  and  _264
REMARK  108  A    between atoms: _263  and  _266
REMARK  109  A    between atoms: _266  and  _267
REMARK  110  A    between atoms: _270  and  _272
REMARK  111  A    between atoms: _272  and  _273
REMARK  112  A    between atoms: _272  and  _275
REMARK  113  A    between atoms: _275  and  _276
REMARK  114  A    between atoms: _286  and  _288
REMARK  115  A    between atoms: _288  and  _289
REMARK  116  A    between atoms: _288  and  _291
REMARK  117  A    between atoms: _291  and  _292
REMARK  118  A    between atoms: _295  and  _297
REMARK  119  A    between atoms: _297  and  _298
REMARK  120  A    between atoms: _297  and  _300
REMARK  121  A    between atoms: _300  and  _301
REMARK  122  A    between atoms: _306  and  _308
REMARK  123  A    between atoms: _308  and  _309
REMARK  124  A    between atoms: _308  and  _311
REMARK  125  A    between atoms: _311  and  _312
REMARK  126  A    between atoms: _318  and  _320
REMARK  127  A    between atoms: _320  and  _321
REMARK  128  A    between atoms: _320  and  _323
REMARK  129  A    between atoms: _323  and  _324
REMARK  130  A    between atoms: _334  and  _336
REMARK  131  A    between atoms: _336  and  _337
REMARK  132  A    between atoms: _336  and  _339
REMARK  133  A    between atoms: _339  and  _340
REMARK  134  A    between atoms: _343  and  _345
REMARK  135  A    between atoms: _345  and  _346
REMARK  136  A    between atoms: _345  and  _348
REMARK  137  A    between atoms: _348  and  _349
REMARK  138  A    between atoms: _354  and  _356
REMARK  139  A    between atoms: _356  and  _357
REMARK  140  A    between atoms: _356  and  _359
REMARK  141  A    between atoms: _359  and  _360
REMARK  142  A    between atoms: _360  and  _361
REMARK  143  A    between atoms: _361  and  _362
REMARK  144  A    between atoms: _362  and  ZN_637
REMARK  145  A    between atoms: _364  and  _366
REMARK  146  A    between atoms: _366  and  _367
REMARK  147  A    between atoms: _366  and  _369
REMARK  148  A    between atoms: _369  and  _370
REMARK  149  A    between atoms: _373  and  _375
REMARK  150  A    between atoms: _375  and  _376
REMARK  151  A    between atoms: _375  and  _378
REMARK  152  A    between atoms: _381  and  _383
REMARK  153  A    between atoms: _383  and  _384
REMARK  154  A    between atoms: _383  and  _386
REMARK  155  A    between atoms: _386  and  _387
REMARK  156  A    between atoms: _387  and  _388
REMARK  157  A    between atoms: _391  and  _393
REMARK  158  A    between atoms: _393  and  _394
REMARK  159  A    between atoms: _393  and  _396
REMARK  160  A    between atoms: _396  and  _397
REMARK  161  A    between atoms: _404  and  _405
REMARK  162  A    between atoms: _410  and  _412
REMARK  163  A    between atoms: _412  and  _413
REMARK  164  A    between atoms: _412  and  _415
REMARK  165  A    between atoms: _415  and  _416
REMARK  166  A    between atoms: _422  and  _424
REMARK  167  A    between atoms: _424  and  _425
REMARK  168  A    between atoms: _424  and  _427
REMARK  169  A    between atoms: _427  and  _428
REMARK  170  A    between atoms: _431  and  _433
REMARK  171  A    between atoms: _433  and  _434
REMARK  172  A    between atoms: _433  and  _436
REMARK  173  A    between atoms: _436  and  _437
REMARK  174  A    between atoms: _437  and  _438
REMARK  175  A    between atoms: _438  and  _439
REMARK  176  A    between atoms: _439  and  _440
REMARK  177  A    between atoms: _444  and  _446
REMARK  178  A    between atoms: _446  and  _447
REMARK  179  A    between atoms: _446  and  _449
REMARK  180  A    between atoms: _449  and  _450
REMARK  181  A    between atoms: _453  and  _455
REMARK  182  A    between atoms: _455  and  _456
REMARK  183  A    between atoms: _455  and  _458
REMARK  184  A    between atoms: _461  and  _463
REMARK  185  A    between atoms: _463  and  _464
REMARK  186  A    between atoms: _463  and  _466
REMARK  187  A    between atoms: _469  and  _471
REMARK  188  A    between atoms: _471  and  _472
REMARK  189  A    between atoms: _471  and  _474
REMARK  190  A    between atoms: _474  and  _475
REMARK  191  A    between atoms: _478  and  _480
REMARK  192  A    between atoms: _480  and  _481
REMARK  193  A    between atoms: _480  and  _483
REMARK  194  A    between atoms: _483  and  _484
REMARK  195  A    between atoms: _487  and  _489
REMARK  196  A    between atoms: _489  and  _490
REMARK  197  A    between atoms: _489  and  _492
REMARK  198  A    between atoms: _492  and  _493
REMARK  199  A    between atoms: _496  and  _498
REMARK  200  A    between atoms: _498  and  _499
REMARK  201  A    between atoms: _498  and  _501
REMARK  202  A    between atoms: _501  and  _502
REMARK  203  A    between atoms: _506  and  _507
REMARK  204  A    between atoms: _512  and  _514
REMARK  205  A    between atoms: _514  and  _515
REMARK  206  A    between atoms: _514  and  _517
REMARK  207  A    between atoms: _517  and  _518
REMARK  208  A    between atoms: _521  and  _523
REMARK  209  A    between atoms: _523  and  _524
REMARK  210  A    between atoms: _523  and  _526
REMARK  211  A    between atoms: _529  and  _531
REMARK  212  A    between atoms: _531  and  _532
REMARK  213  A    between atoms: _535  and  _537
REMARK  214  A    between atoms: _537  and  _538
REMARK  215  A    between atoms: _537  and  _540
REMARK  216  A    between atoms: _540  and  _541
REMARK  217  A    between atoms: _546  and  _547
REMARK  218  A    between atoms: _549  and  _551
REMARK  219  A    between atoms: _551  and  _552
REMARK  220  A    between atoms: _551  and  _554
REMARK  221  A    between atoms: _554  and  _555
REMARK  222  A    between atoms: _557  and  _559
REMARK  223  A    between atoms: _559  and  _560
REMARK  224  A    between atoms: _559  and  _562
REMARK  225  A    between atoms: _562  and  _563
REMARK  226  A    between atoms: _565  and  _567
REMARK  227  A    between atoms: _567  and  _568
REMARK  228  A    between atoms: _567  and  _570
REMARK  229  A    between atoms: _574  and  _575
REMARK  230  A    between atoms: _580  and  _582
REMARK  231  A    between atoms: _582  and  _583
REMARK  232  A    between atoms: _582  and  _585
REMARK  233  A    between atoms: _585  and  _586
REMARK  234  A    between atoms: _591  and  _592
REMARK  235  A    between atoms: _594  and  _596
REMARK  236  A    between atoms: _596  and  _597
REMARK  237  A    between atoms: _596  and  _599
REMARK  238  A    between atoms: _599  and  _600
REMARK  239  A    between atoms: _600  and  _601
REMARK  240  A    between atoms: _601  and  _602
REMARK  241  A    between atoms: _611  and  _613
REMARK  242  A    between atoms: _613  and  _614
REMARK  243  A    between atoms: _613  and  _616
REMARK  244  A    between atoms: _616  and  _617
REMARK  245  A    between atoms: _617  and  _618
REMARK  246  A    between atoms: _620  and  _622
REMARK  247  A    between atoms: _622  and  _623
REMARK  248  A    between atoms: _622  and  _625
REMARK  249  A    between atoms: _628  and  _630
REMARK  250  A    between atoms: _630  and  _631
REMARK  251  A    between atoms: _630  and  _633
REMARK  252  A    between atoms: _633  and  _634
REMARK                            x       y       z     vdW  Elec       q    Type
REMARK                         _______ _______ _______ _____ _____    ______ ____
ROOT
ATOM      1  CA  GLU A   1      39.989  79.105 -11.578  0.00  0.00    +0.134 C 
ENDROOT
BRANCH   1   2
ATOM      2  N   GLU A   1      39.504  80.174 -12.452  0.00  0.00    -0.239 NA
ATOM      3  H   GLU A   1      38.720  80.767 -12.113  0.00  0.00    +0.142 HD
ENDBRANCH   1   2
BRANCH   1   4
ATOM      4  C   GLU A   1      40.226  77.813 -12.381  0.00  0.00    +0.224 C 
ATOM      5  O   GLU A   1      41.306  77.207 -12.338  0.00  0.00    -0.287 OA
ENDBRANCH   1   4
BRANCH   1   6
ATOM      6  CB  GLU A   1      38.944  78.824 -10.484  0.00  0.00    +0.037 C 
BRANCH   6   7
ATOM      7  CG  GLU A   1      39.267  77.635  -9.573  0.00  0.00    +0.116 C 
BRANCH   7   8
ATOM      8  CD  GLU A   1      38.071  77.151  -8.755  0.00  0.00    +0.365 C 
ATOM      9  OE2 GLU A   1      38.090  75.957  -8.387  0.00  0.00    -0.246 OA
ATOM     10  OE1 GLU A   1      37.125  77.941  -8.460  0.00  0.00    -0.246 OA
ENDBRANCH   7   8
ENDBRANCH   6   7
ENDBRANCH   1   6
TORSDOF 5
REMARK  Name = ../refined-set-2016/3fh7/3fh7_pocket.pdb
REMARK  252 active torsions:
REMARK  status: ('A' for Active; 'I' for Inactive)
REMARK    1  A    between atoms: _1  and  _3
REMARK    2  A    between atoms: _3  and  _4
REMARK    3  A    between atoms: _3  and  _6
REMARK    4  A    between atoms: _8  and  _10
REMARK    5  A    between atoms: _10  and  _11
REMARK    6  A    between atoms: _10  and  _13
REMARK    7  A    between atoms: _13  and  _14
REMARK    8  A    between atoms: _16  and  _18
REMARK    9  A    between atoms: _18  and  _19
REMARK   10  A    between atoms: _18  and  _21
REMARK   11  A    between atoms: _21  and  _22
REMARK   12  A    between atoms: _22  and  _23
REMARK   13  A    between atoms: _28  and  _30
REMARK   14  A    between atoms: _30  and  _31
REMARK   15  A    between atoms: _30  and  _33
REMARK   16  A    between atoms: _35  and  _37
REMARK   17  A    between atoms: _37  and  _38
REMARK   18  A    between atoms: _37  and  _40
REMARK   19  A    between atoms: _40  and  _41
REMARK   20  A    between atoms: _41  and  _42
REMARK   21  A    between atoms: _47  and  _49
REMARK   22  A    between atoms: _49  and  _50
REMARK   23  A    between atoms: _53  and  _55
REMARK   24  A    between atoms: _55  and  _56
REMARK   25  A    between atoms: _55  and  _58
REMARK   26  A    between atoms: _58  and  _59
REMARK   27  A    between atoms: _62  and  _64
REMARK   28  A    between atoms: _64  and  _65
REMARK   29  A    between atoms: _64  and  _67
REMARK   30  A    between atoms: _67  and  _68
REMARK   31  A    between atoms: _73  and  _75
REMARK   32  A    between atoms: _75  and  _76
REMARK   33  A    between atoms: _75  and  _78
REMARK   34  A    between atoms: _78  and  _79
REMARK   35  A    between atoms: _84  and  _85
REMARK   36  A    between atoms: _87  and  _89
REMARK   37  A    between atoms: _89  and  _90
REMARK   38  A    between atoms: _89  and  _92
REMARK   39  A    between atoms: _92  and  _93
REMARK   40  A    between atoms: _100  and  _101
REMARK   41  A    between atoms: _106  and  _108
REMARK   42  A    between atoms: _108  and  _109
REMARK   43  A    between atoms: _108  and  _111
REMARK   44  A    between atoms: _111  and  _112
REMARK   45  A    between atoms: _117  and  _118
REMARK   46  A    between atoms: _120  and  _122
REMARK   47  A    between atoms: _122  and  _123
REMARK   48  A    between atoms: _125  and  _127
REMARK   49  A    between atoms: _127  and  _128
REMARK   50  A    between atoms: _130  and  _132
REMARK   51  A    between atoms: _132  and  _133
REMARK   52  A    between atoms: _132  and  _135
REMARK   53  A    between atoms: _135  and  _136
REMARK   54  A    between atoms: _136  and  _137
REMARK   55  A    between atoms: _139  and  _141
REMARK   56  A    between atoms: _141  and  _142
REMARK   57  A    between atoms: _141  and  _144
REMARK   58  A    between atoms: _144  and  _145
REMARK   59  A    between atoms: _145  and  _146
REMARK   60  A    between atoms: _149  and  _151
REMARK   61  A    between atoms: _151  and  _152
REMARK   62  A    between atoms: _151  and  _154
REMARK   63  A    between atoms: _154  and  _155
REMARK   64  A    between atoms: _160  and  _162
REMARK   65  A    between atoms: _162  and  _163
REMARK   66  A    between atoms: _162  and  _165
REMARK   67  A    between atoms: _165  and  _166
REMARK   68  A    between atoms: _169  and  _171
REMARK   69  A    between atoms: _171  and  _172
REMARK   70  A    between atoms: _171  and  _174
REMARK   71  A    between atoms: _174  and  _175
REMARK   72  A    between atoms: _181  and  _183
REMARK   73  A    between atoms: _183  and  _184
REMARK   74  A    between atoms: _183  and  _186
REMARK   75  A    between atoms: _189  and  _191
REMARK   76  A    between atoms: _191  and  _192
REMARK   77  A    between atoms: _191  and  _194
REMARK   78  A    between atoms: _194  and  _195
REMARK   79  A    between atoms: _199  and  ZN_637
REMARK   80  A    between atoms: _200  and  _202
REMARK   81  A    between atoms: _202  and  _203
REMARK   82  A    between atoms: _202  and  _205
REMARK   83  A    between atoms: _205  and  _206
REMARK   84  A    between atoms: _206  and  _207
REMARK   85  A    between atoms: _210  and  _212
REMARK   86  A    between atoms: _212  and  _213
REMARK   87  A    between atoms: _212  and  _215
REMARK   88  A    between atoms: _215  and  _216
REMARK   89  A    between atoms: _219  and  _221
REMARK   90  A    between atoms: _221  and  _222
REMARK   91  A    between atoms: _221  and  _224
REMARK   92  A    between atoms: _224  and  _225
REMARK   93  A    between atoms: _229  and  ZN_637
REMARK   94  A    between atoms: _230  and  _232
REMARK   95  A    between atoms: _232  and  _233
REMARK   96  A    between atoms: _232  and  _235
REMARK   97  A    between atoms: _235  and  _236
REMARK   98  A    between atoms: _239  and  _241
REMARK   99  A    between atoms: _241  and  _242
REMARK  100  A    between atoms: _241  and  _244
REMARK  101  A    between atoms: _244  and  _245
REMARK  102  A    between atoms: _250  and  _252
REMARK  103  A    between atoms: _252  and  _253
REMARK  104  A    between atoms: _252  and  _255
REMARK  105  A    between atoms: _255  and  _256
REMARK  106  A    between atoms: _261  and  _263
REMARK  107  A    between atoms: _263  and  _264
REMARK  108  A    between atoms: _263  and  _266
REMARK  109  A    between atoms: _266  and  _267
REMARK  110  A    between atoms: _270  and  _272
REMARK  111  A    between atoms: _272  and  _273
REMARK  112  A    between atoms: _272  and  _275
REMARK  113  A    between atoms: _275  and  _276
REMARK  114  A    between atoms: _286  and  _288
REMARK  115  A    between atoms: _288  and  _289
REMARK  116  A    between atoms: _288  and  _291
REMARK  117  A    between atoms: _291  and  _292
REMARK  118  A    between atoms: _295  and  _297
REMARK  119  A    between atoms: _297  and  _298
REMARK  120  A    between atoms: _297  and  _300
REMARK  121  A    between atoms: _300  and  _301
REMARK  122  A    between atoms: _306  and  _308
REMARK  123  A    between atoms: _308  and  _309
REMARK  124  A    between atoms: _308  and  _311
REMARK  125  A    between atoms: _311  and  _312
REMARK  126  A    between atoms: _318  and  _320
REMARK  127  A    between atoms: _320  and  _321
REMARK  128  A    between atoms: _320  and  _323
REMARK  129  A    between atoms: _323  and  _324
REMARK  130  A    between atoms: _334  and  _336
REMARK  131  A    between atoms: _336  and  _337
REMARK  132  A    between atoms: _336  and  _339
REMARK  133  A    between atoms: _339  and  _340
REMARK  134  A    between atoms: _343  and  _345
REMARK  135  A    between atoms: _345  and  _346
REMARK  136  A    between atoms: _345  and  _348
REMARK  137  A    between atoms: _348  and  _349
REMARK  138  A    between atoms: _354  and  _356
REMARK  139  A    between atoms: _356  and  _357
REMARK  140  A    between atoms: _356  and  _359
REMARK  141  A    between atoms: _359  and  _360
REMARK  142  A    between atoms: _360  and  _361
REMARK  143  A    between atoms: _361  and  _362
REMARK  144  A    between atoms: _362  and  ZN_637
REMARK  145  A    between atoms: _364  and  _366
REMARK  146  A    between atoms: _366  and  _367
REMARK  147  A    between atoms: _366  and  _369
REMARK  148  A    between atoms: _369  and  _370
REMARK  149  A    between atoms: _373  and  _375
REMARK  150  A    between atoms: _375  and  _376
REMARK  151  A    between atoms: _375  and  _378
REMARK  152  A    between atoms: _381  and  _383
REMARK  153  A    between atoms: _383  and  _384
REMARK  154  A    between atoms: _383  and  _386
REMARK  155  A    between atoms: _386  and  _387
REMARK  156  A    between atoms: _387  and  _388
REMARK  157  A    between atoms: _391  and  _393
REMARK  158  A    between atoms: _393  and  _394
REMARK  159  A    between atoms: _393  and  _396
REMARK  160  A    between atoms: _396  and  _397
REMARK  161  A    between atoms: _404  and  _405
REMARK  162  A    between atoms: _410  and  _412
REMARK  163  A    between atoms: _412  and  _413
REMARK  164  A    between atoms: _412  and  _415
REMARK  165  A    between atoms: _415  and  _416
REMARK  166  A    between atoms: _422  and  _424
REMARK  167  A    between atoms: _424  and  _425
REMARK  168  A    between atoms: _424  and  _427
REMARK  169  A    between atoms: _427  and  _428
REMARK  170  A    between atoms: _431  and  _433
REMARK  171  A    between atoms: _433  and  _434
REMARK  172  A    between atoms: _433  and  _436
REMARK  173  A    between atoms: _436  and  _437
REMARK  174  A    between atoms: _437  and  _438
REMARK  175  A    between atoms: _438  and  _439
REMARK  176  A    between atoms: _439  and  _440
REMARK  177  A    between atoms: _444  and  _446
REMARK  178  A    between atoms: _446  and  _447
REMARK  179  A    between atoms: _446  and  _449
REMARK  180  A    between atoms: _449  and  _450
REMARK  181  A    between atoms: _453  and  _455
REMARK  182  A    between atoms: _455  and  _456
REMARK  183  A    between atoms: _455  and  _458
REMARK  184  A    between atoms: _461  and  _463
REMARK  185  A    between atoms: _463  and  _464
REMARK  186  A    between atoms: _463  and  _466
REMARK  187  A    between atoms: _469  and  _471
REMARK  188  A    between atoms: _471  and  _472
REMARK  189  A    between atoms: _471  and  _474
REMARK  190  A    between atoms: _474  and  _475
REMARK  191  A    between atoms: _478  and  _480
REMARK  192  A    between atoms: _480  and  _481
REMARK  193  A    between atoms: _480  and  _483
REMARK  194  A    between atoms: _483  and  _484
REMARK  195  A    between atoms: _487  and  _489
REMARK  196  A    between atoms: _489  and  _490
REMARK  197  A    between atoms: _489  and  _492
REMARK  198  A    between atoms: _492  and  _493
REMARK  199  A    between atoms: _496  and  _498
REMARK  200  A    between atoms: _498  and  _499
REMARK  201  A    between atoms: _498  and  _501
REMARK  202  A    between atoms: _501  and  _502
REMARK  203  A    between atoms: _506  and  _507
REMARK  204  A    between atoms: _512  and  _514
REMARK  205  A    between atoms: _514  and  _515
REMARK  206  A    between atoms: _514  and  _517
REMARK  207  A    between atoms: _517  and  _518
REMARK  208  A    between atoms: _521  and  _523
REMARK  209  A    between atoms: _523  and  _524
REMARK  210  A    between atoms: _523  and  _526
REMARK  211  A    between atoms: _529  and  _531
REMARK  212  A    between atoms: _531  and  _532
REMARK  213  A    between atoms: _535  and  _537
REMARK  214  A    between atoms: _537  and  _538
REMARK  215  A    between atoms: _537  and  _540
REMARK  216  A    between atoms: _540  and  _541
REMARK  217  A    between atoms: _546  and  _547
REMARK  218  A    between atoms: _549  and  _551
REMARK  219  A    between atoms: _551  and  _552
REMARK  220  A    between atoms: _551  and  _554
REMARK  221  A    between atoms: _554  and  _555
REMARK  222  A    between atoms: _557  and  _559
REMARK  223  A    between atoms: _559  and  _560
REMARK  224  A    between atoms: _559  and  _562
REMARK  225  A    between atoms: _562  and  _563
REMARK  226  A    between atoms: _565  and  _567
REMARK  227  A    between atoms: _567  and  _568
REMARK  228  A    between atoms: _567  and  _570
REMARK  229  A    between atoms: _574  and  _575
REMARK  230  A    between atoms: _580  and  _582
REMARK  231  A    between atoms: _582  and  _583
REMARK  232  A    between atoms: _582  and  _585
REMARK  233  A    between atoms: _585  and  _586
REMARK  234  A    between atoms: _591  and  _592
REMARK  235  A    between atoms: _594  and  _596
REMARK  236  A    between atoms: _596  and  _597
REMARK  237  A    between atoms: _596  and  _599
REMARK  238  A    between atoms: _599  and  _600
REMARK  239  A    between atoms: _600  and  _601
REMARK  240  A    between atoms: _601  and  _602
REMARK  241  A    between atoms: _611  and  _613
REMARK  242  A    between atoms: _613  and  _614
REMARK  243  A    between atoms: _613  and  _616
REMARK  244  A    between atoms: _616  and  _617
REMARK  245  A    between atoms: _617  and  _618
REMARK  246  A    between atoms: _620  and  _622
REMARK  247  A    between atoms: _622  and  _623
REMARK  248  A    between atoms: _622  and  _625
REMARK  249  A    between atoms: _628  and  _630
REMARK  250  A    between atoms: _630  and  _631
REMARK  251  A    between atoms: _630  and  _633
REMARK  252  A    between atoms: _633  and  _634
REMARK                            x       y       z     vdW  Elec       q    Type
REMARK                         _______ _______ _______ _____ _____    ______ ____
ROOT
ATOM      1  CB  PHE A   1      17.178  75.419  -2.994  0.00  0.00    +0.051 C 
ENDROOT
BRANCH   1   2
ATOM      2  CG  PHE A   1      18.231  76.226  -2.293  0.00  0.00    -0.020 A 
ATOM      3  CD2 PHE A   1      17.952  76.884  -1.092  0.00  0.00    -0.004 A 
ATOM      4  CE2 PHE A   1      18.925  77.667  -0.463  0.00  0.00    -0.000 A 
ATOM      5  CZ  PHE A   1      20.178  77.812  -1.049  0.00  0.00    -0.000 A 
ATOM      6  CE1 PHE A   1      20.461  77.176  -2.263  0.00  0.00    -0.000 A 
ATOM      7  CD1 PHE A   1      19.487  76.391  -2.876  0.00  0.00    -0.004 A 
ENDBRANCH   1   2
BRANCH   1   8
ATOM      8  CA  PHE A   1      16.599  74.271  -2.171  0.00  0.00    +0.137 C 
BRANCH   8   9
ATOM      9  N   PHE A   1      17.473  73.112  -2.272  0.00  0.00    -0.239 NA
ATOM     10  H   PHE A   1      18.190  73.082  -3.025  0.00  0.00    +0.142 HD
ENDBRANCH   8   9
BRANCH   8  11
ATOM     11  C   PHE A   1      15.213  73.964  -2.736  0.00  0.00    +0.224 C 
ATOM     12  O   PHE A   1      14.218  74.527  -2.301  0.00  0.00    -0.287 OA
ENDBRANCH   8  11
ENDBRANCH   1   8
TORSDOF 4
REMARK  Name = ../refined-set-2016/3fh7/3fh7_pocket.pdb
REMARK  252 active torsions:
REMARK  status: ('A' for Active; 'I' for Inactive)
REMARK    1  A    between atoms: _1  and  _3
REMARK    2  A    between atoms: _3  and  _4
REMARK    3  A    between atoms: _3  and  _6
REMARK    4  A    between atoms: _8  and  _10
REMARK    5  A    between atoms: _10  and  _11
REMARK    6  A    between atoms: _10  and  _13
REMARK    7  A    between atoms: _13  and  _14
REMARK    8  A    between atoms: _16  and  _18
REMARK    9  A    between atoms: _18  and  _19
REMARK   10  A    between atoms: _18  and  _21
REMARK   11  A    between atoms: _21  and  _22
REMARK   12  A    between atoms: _22  and  _23
REMARK   13  A    between atoms: _28  and  _30
REMARK   14  A    between atoms: _30  and  _31
REMARK   15  A    between atoms: _30  and  _33
REMARK   16  A    between atoms: _35  and  _37
REMARK   17  A    between atoms: _37  and  _38
REMARK   18  A    between atoms: _37  and  _40
REMARK   19  A    between atoms: _40  and  _41
REMARK   20  A    between atoms: _41  and  _42
REMARK   21  A    between atoms: _47  and  _49
REMARK   22  A    between atoms: _49  and  _50
REMARK   23  A    between atoms: _53  and  _55
REMARK   24  A    between atoms: _55  and  _56
REMARK   25  A    between atoms: _55  and  _58
REMARK   26  A    between atoms: _58  and  _59
REMARK   27  A    between atoms: _62  and  _64
REMARK   28  A    between atoms: _64  and  _65
REMARK   29  A    between atoms: _64  and  _67
REMARK   30  A    between atoms: _67  and  _68
REMARK   31  A    between atoms: _73  and  _75
REMARK   32  A    between atoms: _75  and  _76
REMARK   33  A    between atoms: _75  and  _78
REMARK   34  A    between atoms: _78  and  _79
REMARK   35  A    between atoms: _84  and  _85
REMARK   36  A    between atoms: _87  and  _89
REMARK   37  A    between atoms: _89  and  _90
REMARK   38  A    between atoms: _89  and  _92
REMARK   39  A    between atoms: _92  and  _93
REMARK   40  A    between atoms: _100  and  _101
REMARK   41  A    between atoms: _106  and  _108
REMARK   42  A    between atoms: _108  and  _109
REMARK   43  A    between atoms: _108  and  _111
REMARK   44  A    between atoms: _111  and  _112
REMARK   45  A    between atoms: _117  and  _118
REMARK   46  A    between atoms: _120  and  _122
REMARK   47  A    between atoms: _122  and  _123
REMARK   48  A    between atoms: _125  and  _127
REMARK   49  A    between atoms: _127  and  _128
REMARK   50  A    between atoms: _130  and  _132
REMARK   51  A    between atoms: _132  and  _133
REMARK   52  A    between atoms: _132  and  _135
REMARK   53  A    between atoms: _135  and  _136
REMARK   54  A    between atoms: _136  and  _137
REMARK   55  A    between atoms: _139  and  _141
REMARK   56  A    between atoms: _141  and  _142
REMARK   57  A    between atoms: _141  and  _144
REMARK   58  A    between atoms: _144  and  _145
REMARK   59  A    between atoms: _145  and  _146
REMARK   60  A    between atoms: _149  and  _151
REMARK   61  A    between atoms: _151  and  _152
REMARK   62  A    between atoms: _151  and  _154
REMARK   63  A    between atoms: _154  and  _155
REMARK   64  A    between atoms: _160  and  _162
REMARK   65  A    between atoms: _162  and  _163
REMARK   66  A    between atoms: _162  and  _165
REMARK   67  A    between atoms: _165  and  _166
REMARK   68  A    between atoms: _169  and  _171
REMARK   69  A    between atoms: _171  and  _172
REMARK   70  A    between atoms: _171  and  _174
REMARK   71  A    between atoms: _174  and  _175
REMARK   72  A    between atoms: _181  and  _183
REMARK   73  A    between atoms: _183  and  _184
REMARK   74  A    between atoms: _183  and  _186
REMARK   75  A    between atoms: _189  and  _191
REMARK   76  A    between atoms: _191  and  _192
REMARK   77  A    between atoms: _191  and  _194
REMARK   78  A    between atoms: _194  and  _195
REMARK   79  A    between atoms: _199  and  ZN_637
REMARK   80  A    between atoms: _200  and  _202
REMARK   81  A    between atoms: _202  and  _203
REMARK   82  A    between atoms: _202  and  _205
REMARK   83  A    between atoms: _205  and  _206
REMARK   84  A    between atoms: _206  and  _207
REMARK   85  A    between atoms: _210  and  _212
REMARK   86  A    between atoms: _212  and  _213
REMARK   87  A    between atoms: _212  and  _215
REMARK   88  A    between atoms: _215  and  _216
REMARK   89  A    between atoms: _219  and  _221
REMARK   90  A    between atoms: _221  and  _222
REMARK   91  A    between atoms: _221  and  _224
REMARK   92  A    between atoms: _224  and  _225
REMARK   93  A    between atoms: _229  and  ZN_637
REMARK   94  A    between atoms: _230  and  _232
REMARK   95  A    between atoms: _232  and  _233
REMARK   96  A    between atoms: _232  and  _235
REMARK   97  A    between atoms: _235  and  _236
REMARK   98  A    between atoms: _239  and  _241
REMARK   99  A    between atoms: _241  and  _242
REMARK  100  A    between atoms: _241  and  _244
REMARK  101  A    between atoms: _244  and  _245
REMARK  102  A    between atoms: _250  and  _252
REMARK  103  A    between atoms: _252  and  _253
REMARK  104  A    between atoms: _252  and  _255
REMARK  105  A    between atoms: _255  and  _256
REMARK  106  A    between atoms: _261  and  _263
REMARK  107  A    between atoms: _263  and  _264
REMARK  108  A    between atoms: _263  and  _266
REMARK  109  A    between atoms: _266  and  _267
REMARK  110  A    between atoms: _270  and  _272
REMARK  111  A    between atoms: _272  and  _273
REMARK  112  A    between atoms: _272  and  _275
REMARK  113  A    between atoms: _275  and  _276
REMARK  114  A    between atoms: _286  and  _288
REMARK  115  A    between atoms: _288  and  _289
REMARK  116  A    between atoms: _288  and  _291
REMARK  117  A    between atoms: _291  and  _292
REMARK  118  A    between atoms: _295  and  _297
REMARK  119  A    between atoms: _297  and  _298
REMARK  120  A    between atoms: _297  and  _300
REMARK  121  A    between atoms: _300  and  _301
REMARK  122  A    between atoms: _306  and  _308
REMARK  123  A    between atoms: _308  and  _309
REMARK  124  A    between atoms: _308  and  _311
REMARK  125  A    between atoms: _311  and  _312
REMARK  126  A    between atoms: _318  and  _320
REMARK  127  A    between atoms: _320  and  _321
REMARK  128  A    between atoms: _320  and  _323
REMARK  129  A    between atoms: _323  and  _324
REMARK  130  A    between atoms: _334  and  _336
REMARK  131  A    between atoms: _336  and  _337
REMARK  132  A    between atoms: _336  and  _339
REMARK  133  A    between atoms: _339  and  _340
REMARK  134  A    between atoms: _343  and  _345
REMARK  135  A    between atoms: _345  and  _346
REMARK  136  A    between atoms: _345  and  _348
REMARK  137  A    between atoms: _348  and  _349
REMARK  138  A    between atoms: _354  and  _356
REMARK  139  A    between atoms: _356  and  _357
REMARK  140  A    between atoms: _356  and  _359
REMARK  141  A    between atoms: _359  and  _360
REMARK  142  A    between atoms: _360  and  _361
REMARK  143  A    between atoms: _361  and  _362
REMARK  144  A    between atoms: _362  and  ZN_637
REMARK  145  A    between atoms: _364  and  _366
REMARK  146  A    between atoms: _366  and  _367
REMARK  147  A    between atoms: _366  and  _369
REMARK  148  A    between atoms: _369  and  _370
REMARK  149  A    between atoms: _373  and  _375
REMARK  150  A    between atoms: _375  and  _376
REMARK  151  A    between atoms: _375  and  _378
REMARK  152  A    between atoms: _381  and  _383
REMARK  153  A    between atoms: _383  and  _384
REMARK  154  A    between atoms: _383  and  _386
REMARK  155  A    between atoms: _386  and  _387
REMARK  156  A    between atoms: _387  and  _388
REMARK  157  A    between atoms: _391  and  _393
REMARK  158  A    between atoms: _393  and  _394
REMARK  159  A    between atoms: _393  and  _396
REMARK  160  A    between atoms: _396  and  _397
REMARK  161  A    between atoms: _404  and  _405
REMARK  162  A    between atoms: _410  and  _412
REMARK  163  A    between atoms: _412  and  _413
REMARK  164  A    between atoms: _412  and  _415
REMARK  165  A    between atoms: _415  and  _416
REMARK  166  A    between atoms: _422  and  _424
REMARK  167  A    between atoms: _424  and  _425
REMARK  168  A    between atoms: _424  and  _427
REMARK  169  A    between atoms: _427  and  _428
REMARK  170  A    between atoms: _431  and  _433
REMARK  171  A    between atoms: _433  and  _434
REMARK  172  A    between atoms: _433  and  _436
REMARK  173  A    between atoms: _436  and  _437
REMARK  174  A    between atoms: _437  and  _438
REMARK  175  A    between atoms: _438  and  _439
REMARK  176  A    between atoms: _439  and  _440
REMARK  177  A    between atoms: _444  and  _446
REMARK  178  A    between atoms: _446  and  _447
REMARK  179  A    between atoms: _446  and  _449
REMARK  180  A    between atoms: _449  and  _450
REMARK  181  A    between atoms: _453  and  _455
REMARK  182  A    between atoms: _455  and  _456
REMARK  183  A    between atoms: _455  and  _458
REMARK  184  A    between atoms: _461  and  _463
REMARK  185  A    between atoms: _463  and  _464
REMARK  186  A    between atoms: _463  and  _466
REMARK  187  A    between atoms: _469  and  _471
REMARK  188  A    between atoms: _471  and  _472
REMARK  189  A    between atoms: _471  and  _474
REMARK  190  A    between atoms: _474  and  _475
REMARK  191  A    between atoms: _478  and  _480
REMARK  192  A    between atoms: _480  and  _481
REMARK  193  A    between atoms: _480  and  _483
REMARK  194  A    between atoms: _483  and  _484
REMARK  195  A    between atoms: _487  and  _489
REMARK  196  A    between atoms: _489  and  _490
REMARK  197  A    between atoms: _489  and  _492
REMARK  198  A    between atoms: _492  and  _493
REMARK  199  A    between atoms: _496  and  _498
REMARK  200  A    between atoms: _498  and  _499
REMARK  201  A    between atoms: _498  and  _501
REMARK  202  A    between atoms: _501  and  _502
REMARK  203  A    between atoms: _506  and  _507
REMARK  204  A    between atoms: _512  and  _514
REMARK  205  A    between atoms: _514  and  _515
REMARK  206  A    between atoms: _514  and  _517
REMARK  207  A    between atoms: _517  and  _518
REMARK  208  A    between atoms: _521  and  _523
REMARK  209  A    between atoms: _523  and  _524
REMARK  210  A    between atoms: _523  and  _526
REMARK  211  A    between atoms: _529  and  _531
REMARK  212  A    between atoms: _531  and  _532
REMARK  213  A    between atoms: _535  and  _537
REMARK  214  A    between atoms: _537  and  _538
REMARK  215  A    between atoms: _537  and  _540
REMARK  216  A    between atoms: _540  and  _541
REMARK  217  A    between atoms: _546  and  _547
REMARK  218  A    between atoms: _549  and  _551
REMARK  219  A    between atoms: _551  and  _552
REMARK  220  A    between atoms: _551  and  _554
REMARK  221  A    between atoms: _554  and  _555
REMARK  222  A    between atoms: _557  and  _559
REMARK  223  A    between atoms: _559  and  _560
REMARK  224  A    between atoms: _559  and  _562
REMARK  225  A    between atoms: _562  and  _563
REMARK  226  A    between atoms: _565  and  _567
REMARK  227  A    between atoms: _567  and  _568
REMARK  228  A    between atoms: _567  and  _570
REMARK  229  A    between atoms: _574  and  _575
REMARK  230  A    between atoms: _580  and  _582
REMARK  231  A    between atoms: _582  and  _583
REMARK  232  A    between atoms: _582  and  _585
REMARK  233  A    between atoms: _585  and  _586
REMARK  234  A    between atoms: _591  and  _592
REMARK  235  A    between atoms: _594  and  _596
REMARK  236  A    between atoms: _596  and  _597
REMARK  237  A    between atoms: _596  and  _599
REMARK  238  A    between atoms: _599  and  _600
REMARK  239  A    between atoms: _600  and  _601
REMARK  240  A    between atoms: _601  and  _602
REMARK  241  A    between atoms: _611  and  _613
REMARK  242  A    between atoms: _613  and  _614
REMARK  243  A    between atoms: _613  and  _616
REMARK  244  A    between atoms: _616  and  _617
REMARK  245  A    between atoms: _617  and  _618
REMARK  246  A    between atoms: _620  and  _622
REMARK  247  A    between atoms: _622  and  _623
REMARK  248  A    between atoms: _622  and  _625
REMARK  249  A    between atoms: _628  and  _630
REMARK  250  A    between atoms: _630  and  _631
REMARK  251  A    between atoms: _630  and  _633
REMARK  252  A    between atoms: _633  and  _634
REMARK                            x       y       z     vdW  Elec       q    Type
REMARK                         _______ _______ _______ _____ _____    ______ ____
ROOT
ATOM      1  C   LYS A   4      19.482  82.328  -9.924  0.00  0.00    +0.241 C 
ATOM      2  O   LYS A   4      20.105  82.482  -8.877  0.00  0.00    -0.273 OA
ATOM      3  N   LEU A   5      20.002  82.586 -11.127  0.00  0.00    -0.297 N 
ATOM      4  H   LEU A   5      19.444  82.381 -11.980  0.00  0.00    +0.150 HD
ENDROOT
BRANCH   1   5
ATOM      5  CA  LYS A   4      18.039  81.820  -9.888  0.00  0.00    +0.149 C 
BRANCH   5   7
ATOM      6  C   THR A   3      18.375  79.642  -8.832  0.00  0.00    +0.243 C 
ATOM      7  N   LYS A   4      17.883  80.877  -8.789  0.00  0.00    -0.297 N 
ATOM      8  H   LYS A   4      17.367  81.181  -7.938  0.00  0.00    +0.150 HD
ATOM      9  O   THR A   3      18.835  79.140  -9.833  0.00  0.00    -0.273 OA
BRANCH   6  10
ATOM     10  CA  THR A   3      18.338  78.873  -7.526  0.00  0.00    +0.176 C 
BRANCH  10  13
ATOM     11  C   PHE A   2      18.483  80.344  -5.606  0.00  0.00    +0.241 C 
ATOM     12  O   PHE A   2      19.687  80.195  -5.555  0.00  0.00    -0.273 OA
ATOM     13  N   THR A   3      17.724  79.699  -6.498  0.00  0.00    -0.295 N 
ATOM     14  H   THR A   3      16.689  79.788  -6.457  0.00  0.00    +0.150 HD
BRANCH  11  15
ATOM     15  CA  PHE A   2      17.798  81.262  -4.592  0.00  0.00    +0.153 C 
BRANCH  15  17
ATOM     16  C   PRO A   1      15.730  81.967  -5.705  0.00  0.00    +0.239 C 
ATOM     17  N   PHE A   2      16.340  81.242  -4.767  0.00  0.00    -0.297 N 
ATOM     18  H   PHE A   2      15.765  80.644  -4.140  0.00  0.00    +0.150 HD
ATOM     19  O   PRO A   1      16.337  82.717  -6.470  0.00  0.00    -0.274 OA
BRANCH  16  24
ATOM     20  N   PRO A   1      13.637  80.586  -5.283  0.00  0.00    -0.210 NA
ATOM     21  CD  PRO A   1      12.622  80.851  -4.247  0.00  0.00    +0.089 C 
ATOM     22  CG  PRO A   1      12.871  82.268  -3.877  0.00  0.00    +0.021 C 
ATOM     23  CB  PRO A   1      13.460  82.936  -5.085  0.00  0.00    +0.028 C 
ATOM     24  CA  PRO A   1      14.199  81.826  -5.843  0.00  0.00    +0.149 C 
ENDBRANCH  16  24
ENDBRANCH  15  17
BRANCH  15  25
ATOM     25  CB  PHE A   2      18.249  80.815  -3.179  0.00  0.00    +0.055 C 
BRANCH  25  26
ATOM     26  CG  PHE A   2      17.702  81.648  -2.029  0.00  0.00    -0.020 A 
ATOM     27  CD2 PHE A   2      17.829  81.179  -0.713  0.00  0.00    -0.004 A 
ATOM     28  CE2 PHE A   2      17.340  81.925   0.384  0.00  0.00    -0.000 A 
ATOM     29  CZ  PHE A   2      16.733  83.168   0.163  0.00  0.00    -0.000 A 
ATOM     30  CE1 PHE A   2      16.617  83.664  -1.145  0.00  0.00    -0.000 A 
ATOM     31  CD1 PHE A   2      17.110  82.907  -2.241  0.00  0.00    -0.004 A 
ENDBRANCH  25  26
ENDBRANCH  15  25
ENDBRANCH  11  15
ENDBRANCH  10  13
BRANCH  10  32
ATOM     32  CB  THR A   3      17.668  77.492  -7.704  0.00  0.00    +0.137 C 
ATOM     33  CG2 THR A   3      17.583  76.768  -6.358  0.00  0.00    +0.034 C 
BRANCH  32  34
ATOM     34  OG1 THR A   3      16.375  77.634  -8.313  0.00  0.00    -0.382 OA
ATOM     35  HG1 THR A   3      15.801  78.199  -7.737  0.00  0.00    +0.210 HD
ENDBRANCH  32  34
ENDBRANCH  10  32
ENDBRANCH   6  10
ENDBRANCH   5   7
BRANCH   5  36
ATOM     36  CB  LYS A   4      17.096  83.013  -9.695  0.00  0.00    +0.029 C 
BRANCH  36  37
ATOM     37  CG  LYS A   4      15.596  82.647  -9.686  0.00  0.00    +0.000 C 
BRANCH  37  38
ATOM     38  CD  LYS A   4      14.770  83.900  -9.425  0.00  0.00    -0.024 C 
BRANCH  38  39
ATOM     39  CE  LYS A   4      13.271  83.670  -9.582  0.00  0.00    -0.086 C 
BRANCH  39  40
ATOM     40  NZ  LYS A   4      12.561  84.996  -9.562  0.00  0.00    +0.380 N 
ATOM     41  HZ1 LYS A   4      12.748  85.474  -8.658  0.00  0.00    -0.089 HD
ATOM     42  HZ2 LYS A   4      11.538  84.842  -9.669  0.00  0.00    -0.089 HD
ATOM     43  HZ3 LYS A   4      12.908  85.585 -10.346  0.00  0.00    -0.089 HD
ENDBRANCH  39  40
ENDBRANCH  38  39
ENDBRANCH  37  38
ENDBRANCH  36  37
ENDBRANCH   5  36
ENDBRANCH   1   5
BRANCH   3  44
ATOM     44  CA  LEU A   5      21.341  83.151 -11.264  0.00  0.00    +0.149 C 
BRANCH  44  45
ATOM     45  C   LEU A   5      21.383  84.590 -10.739  0.00  0.00    +0.241 C 
ATOM     46  O   LEU A   5      22.197  84.915  -9.870  0.00  0.00    -0.273 OA
ATOM     47  N   VAL A   6      20.509  85.442 -11.275  0.00  0.00    -0.297 N 
ATOM     48  H   VAL A   6      19.942  85.133 -12.090  0.00  0.00    +0.150 HD
BRANCH  47  49
ATOM     49  CA  VAL A   6      20.318  86.801 -10.755  0.00  0.00    +0.149 C 
BRANCH  49  50
ATOM     50  C   VAL A   6      19.211  86.747  -9.718  0.00  0.00    +0.241 C 
ATOM     51  N   VAL A   7      19.535  87.122  -8.489  0.00  0.00    -0.297 N 
ATOM     52  H   VAL A   7      20.483  87.506  -8.302  0.00  0.00    +0.150 HD
ATOM     53  O   VAL A   6      18.079  86.352 -10.020  0.00  0.00    -0.273 OA
BRANCH  51  54
ATOM     54  CA  VAL A   7      18.578  87.003  -7.397  0.00  0.00    +0.149 C 
BRANCH  54  55
ATOM     55  C   VAL A   7      18.033  88.369  -6.982  0.00  0.00    +0.241 C 
ATOM     56  N   ASP A   8      16.965  88.381  -6.192  0.00  0.00    -0.297 N 
ATOM     57  H   ASP A   8      16.497  87.482  -5.959  0.00  0.00    +0.150 HD
ATOM     58  O   VAL A   7      18.548  89.396  -7.409  0.00  0.00    -0.273 OA
BRANCH  56  59
ATOM     59  CA  ASP A   8      16.434  89.617  -5.646  0.00  0.00    +0.160 C 
BRANCH  59  60
ATOM     60  C   ASP A   8      16.608  89.557  -4.140  0.00  0.00    +0.241 C 
ATOM     61  O   ASP A   8      15.880  88.842  -3.450  0.00  0.00    -0.273 OA
ATOM     62  N   LEU A   9      17.560  90.318  -3.621  0.00  0.00    -0.298 N 
ATOM     63  H   LEU A   9      18.082  90.985  -4.224  0.00  0.00    +0.150 HD
BRANCH  62  64
ATOM     64  CA  LEU A   9      17.873  90.216  -2.198  0.00  0.00    +0.137 C 
BRANCH  64  65
ATOM     65  C   LEU A   9      17.145  91.193  -1.272  0.00  0.00    +0.227 C 
ATOM     66  O   LEU A   9      17.545  91.347  -0.111  0.00  0.00    -0.286 OA
ENDBRANCH  64  65
BRANCH  64  67
ATOM     67  CB  LEU A   9      19.382  90.274  -1.986  0.00  0.00    +0.028 C 
BRANCH  67  68
ATOM     68  CG  LEU A   9      20.139  89.033  -2.475  0.00  0.00    +0.002 C 
ATOM     69  CD2 LEU A   9      19.827  87.782  -1.638  0.00  0.00    +0.000 C 
ATOM     70  CD1 LEU A   9      21.619  89.314  -2.455  0.00  0.00    +0.000 C 
ENDBRANCH  67  68
ENDBRANCH  64  67
ENDBRANCH  62  64
ENDBRANCH  59  60
BRANCH  59  71
ATOM     71  CB  ASP A   8      14.953  89.755  -6.005  0.00  0.00    +0.143 C 
BRANCH  71  72
ATOM     72  CG  ASP A   8      14.287  90.950  -5.333  0.00  0.00    +0.367 C 
ATOM     73  OD2 ASP A   8      14.969  91.748  -4.648  0.00  0.00    -0.246 OA
ATOM     74  OD1 ASP A   8      13.060  91.093  -5.504  0.00  0.00    -0.246 OA
ENDBRANCH  71  72
ENDBRANCH  59  71
ENDBRANCH  56  59
ENDBRANCH  54  55
BRANCH  54  75
ATOM     75  CB  VAL A   7      19.174  86.226  -6.200  0.00  0.00    +0.027 C 
ATOM     76  CG2 VAL A   7      20.350  86.976  -5.581  0.00  0.00    +0.002 C 
ATOM     77  CG1 VAL A   7      19.590  84.787  -6.646  0.00  0.00    +0.002 C 
ENDBRANCH  54  75
ENDBRANCH  51  54
ENDBRANCH  49  50
BRANCH  49  78
ATOM     78  CB  VAL A   6      19.925  87.778 -11.870  0.00  0.00    +0.027 C 
ATOM     79  CG2 VAL A   6      19.727  89.183 -11.319  0.00  0.00    +0.002 C 
ATOM     80  CG1 VAL A   6      20.988  87.775 -12.959  0.00  0.00    +0.002 C 
ENDBRANCH  49  78
ENDBRANCH  47  49
ENDBRANCH  44  45
BRANCH  44  81
ATOM     81  CB  LEU A   5      21.810  83.077 -12.717  0.00  0.00    +0.029 C 
BRANCH  81  82
ATOM     82  CG  LEU A   5      23.283  83.410 -12.983  0.00  0.00    +0.002 C 
ATOM     83  CD2 LEU A   5      24.249  82.492 -12.184  0.00  0.00    +0.000 C 
ATOM     84  CD1 LEU A   5      23.572  83.368 -14.470  0.00  0.00    +0.000 C 
ENDBRANCH  81  82
ENDBRANCH  44  81
ENDBRANCH   3  44
TORSDOF 34
REMARK  Name = ../refined-set-2016/3fh7/3fh7_pocket.pdb
REMARK  252 active torsions:
REMARK  status: ('A' for Active; 'I' for Inactive)
REMARK    1  A    between atoms: _1  and  _3
REMARK    2  A    between atoms: _3  and  _4
REMARK    3  A    between atoms: _3  and  _6
REMARK    4  A    between atoms: _8  and  _10
REMARK    5  A    between atoms: _10  and  _11
REMARK    6  A    between atoms: _10  and  _13
REMARK    7  A    between atoms: _13  and  _14
REMARK    8  A    between atoms: _16  and  _18
REMARK    9  A    between atoms: _18  and  _19
REMARK   10  A    between atoms: _18  and  _21
REMARK   11  A    between atoms: _21  and  _22
REMARK   12  A    between atoms: _22  and  _23
REMARK   13  A    between atoms: _28  and  _30
REMARK   14  A    between atoms: _30  and  _31
REMARK   15  A    between atoms: _30  and  _33
REMARK   16  A    between atoms: _35  and  _37
REMARK   17  A    between atoms: _37  and  _38
REMARK   18  A    between atoms: _37  and  _40
REMARK   19  A    between atoms: _40  and  _41
REMARK   20  A    between atoms: _41  and  _42
REMARK   21  A    between atoms: _47  and  _49
REMARK   22  A    between atoms: _49  and  _50
REMARK   23  A    between atoms: _53  and  _55
REMARK   24  A    between atoms: _55  and  _56
REMARK   25  A    between atoms: _55  and  _58
REMARK   26  A    between atoms: _58  and  _59
REMARK   27  A    between atoms: _62  and  _64
REMARK   28  A    between atoms: _64  and  _65
REMARK   29  A    between atoms: _64  and  _67
REMARK   30  A    between atoms: _67  and  _68
REMARK   31  A    between atoms: _73  and  _75
REMARK   32  A    between atoms: _75  and  _76
REMARK   33  A    between atoms: _75  and  _78
REMARK   34  A    between atoms: _78  and  _79
REMARK   35  A    between atoms: _84  and  _85
REMARK   36  A    between atoms: _87  and  _89
REMARK   37  A    between atoms: _89  and  _90
REMARK   38  A    between atoms: _89  and  _92
REMARK   39  A    between atoms: _92  and  _93
REMARK   40  A    between atoms: _100  and  _101
REMARK   41  A    between atoms: _106  and  _108
REMARK   42  A    between atoms: _108  and  _109
REMARK   43  A    between atoms: _108  and  _111
REMARK   44  A    between atoms: _111  and  _112
REMARK   45  A    between atoms: _117  and  _118
REMARK   46  A    between atoms: _120  and  _122
REMARK   47  A    between atoms: _122  and  _123
REMARK   48  A    between atoms: _125  and  _127
REMARK   49  A    between atoms: _127  and  _128
REMARK   50  A    between atoms: _130  and  _132
REMARK   51  A    between atoms: _132  and  _133
REMARK   52  A    between atoms: _132  and  _135
REMARK   53  A    between atoms: _135  and  _136
REMARK   54  A    between atoms: _136  and  _137
REMARK   55  A    between atoms: _139  and  _141
REMARK   56  A    between atoms: _141  and  _142
REMARK   57  A    between atoms: _141  and  _144
REMARK   58  A    between atoms: _144  and  _145
REMARK   59  A    between atoms: _145  and  _146
REMARK   60  A    between atoms: _149  and  _151
REMARK   61  A    between atoms: _151  and  _152
REMARK   62  A    between atoms: _151  and  _154
REMARK   63  A    between atoms: _154  and  _155
REMARK   64  A    between atoms: _160  and  _162
REMARK   65  A    between atoms: _162  and  _163
REMARK   66  A    between atoms: _162  and  _165
REMARK   67  A    between atoms: _165  and  _166
REMARK   68  A    between atoms: _169  and  _171
REMARK   69  A    between atoms: _171  and  _172
REMARK   70  A    between atoms: _171  and  _174
REMARK   71  A    between atoms: _174  and  _175
REMARK   72  A    between atoms: _181  and  _183
REMARK   73  A    between atoms: _183  and  _184
REMARK   74  A    between atoms: _183  and  _186
REMARK   75  A    between atoms: _189  and  _191
REMARK   76  A    between atoms: _191  and  _192
REMARK   77  A    between atoms: _191  and  _194
REMARK   78  A    between atoms: _194  and  _195
REMARK   79  A    between atoms: _199  and  ZN_637
REMARK   80  A    between atoms: _200  and  _202
REMARK   81  A    between atoms: _202  and  _203
REMARK   82  A    between atoms: _202  and  _205
REMARK   83  A    between atoms: _205  and  _206
REMARK   84  A    between atoms: _206  and  _207
REMARK   85  A    between atoms: _210  and  _212
REMARK   86  A    between atoms: _212  and  _213
REMARK   87  A    between atoms: _212  and  _215
REMARK   88  A    between atoms: _215  and  _216
REMARK   89  A    between atoms: _219  and  _221
REMARK   90  A    between atoms: _221  and  _222
REMARK   91  A    between atoms: _221  and  _224
REMARK   92  A    between atoms: _224  and  _225
REMARK   93  A    between atoms: _229  and  ZN_637
REMARK   94  A    between atoms: _230  and  _232
REMARK   95  A    between atoms: _232  and  _233
REMARK   96  A    between atoms: _232  and  _235
REMARK   97  A    between atoms: _235  and  _236
REMARK   98  A    between atoms: _239  and  _241
REMARK   99  A    between atoms: _241  and  _242
REMARK  100  A    between atoms: _241  and  _244
REMARK  101  A    between atoms: _244  and  _245
REMARK  102  A    between atoms: _250  and  _252
REMARK  103  A    between atoms: _252  and  _253
REMARK  104  A    between atoms: _252  and  _255
REMARK  105  A    between atoms: _255  and  _256
REMARK  106  A    between atoms: _261  and  _263
REMARK  107  A    between atoms: _263  and  _264
REMARK  108  A    between atoms: _263  and  _266
REMARK  109  A    between atoms: _266  and  _267
REMARK  110  A    between atoms: _270  and  _272
REMARK  111  A    between atoms: _272  and  _273
REMARK  112  A    between atoms: _272  and  _275
REMARK  113  A    between atoms: _275  and  _276
REMARK  114  A    between atoms: _286  and  _288
REMARK  115  A    between atoms: _288  and  _289
REMARK  116  A    between atoms: _288  and  _291
REMARK  117  A    between atoms: _291  and  _292
REMARK  118  A    between atoms: _295  and  _297
REMARK  119  A    between atoms: _297  and  _298
REMARK  120  A    between atoms: _297  and  _300
REMARK  121  A    between atoms: _300  and  _301
REMARK  122  A    between atoms: _306  and  _308
REMARK  123  A    between atoms: _308  and  _309
REMARK  124  A    between atoms: _308  and  _311
REMARK  125  A    between atoms: _311  and  _312
REMARK  126  A    between atoms: _318  and  _320
REMARK  127  A    between atoms: _320  and  _321
REMARK  128  A    between atoms: _320  and  _323
REMARK  129  A    between atoms: _323  and  _324
REMARK  130  A    between atoms: _334  and  _336
REMARK  131  A    between atoms: _336  and  _337
REMARK  132  A    between atoms: _336  and  _339
REMARK  133  A    between atoms: _339  and  _340
REMARK  134  A    between atoms: _343  and  _345
REMARK  135  A    between atoms: _345  and  _346
REMARK  136  A    between atoms: _345  and  _348
REMARK  137  A    between atoms: _348  and  _349
REMARK  138  A    between atoms: _354  and  _356
REMARK  139  A    between atoms: _356  and  _357
REMARK  140  A    between atoms: _356  and  _359
REMARK  141  A    between atoms: _359  and  _360
REMARK  142  A    between atoms: _360  and  _361
REMARK  143  A    between atoms: _361  and  _362
REMARK  144  A    between atoms: _362  and  ZN_637
REMARK  145  A    between atoms: _364  and  _366
REMARK  146  A    between atoms: _366  and  _367
REMARK  147  A    between atoms: _366  and  _369
REMARK  148  A    between atoms: _369  and  _370
REMARK  149  A    between atoms: _373  and  _375
REMARK  150  A    between atoms: _375  and  _376
REMARK  151  A    between atoms: _375  and  _378
REMARK  152  A    between atoms: _381  and  _383
REMARK  153  A    between atoms: _383  and  _384
REMARK  154  A    between atoms: _383  and  _386
REMARK  155  A    between atoms: _386  and  _387
REMARK  156  A    between atoms: _387  and  _388
REMARK  157  A    between atoms: _391  and  _393
REMARK  158  A    between atoms: _393  and  _394
REMARK  159  A    between atoms: _393  and  _396
REMARK  160  A    between atoms: _396  and  _397
REMARK  161  A    between atoms: _404  and  _405
REMARK  162  A    between atoms: _410  and  _412
REMARK  163  A    between atoms: _412  and  _413
REMARK  164  A    between atoms: _412  and  _415
REMARK  165  A    between atoms: _415  and  _416
REMARK  166  A    between atoms: _422  and  _424
REMARK  167  A    between atoms: _424  and  _425
REMARK  168  A    between atoms: _424  and  _427
REMARK  169  A    between atoms: _427  and  _428
REMARK  170  A    between atoms: _431  and  _433
REMARK  171  A    between atoms: _433  and  _434
REMARK  172  A    between atoms: _433  and  _436
REMARK  173  A    between atoms: _436  and  _437
REMARK  174  A    between atoms: _437  and  _438
REMARK  175  A    between atoms: _438  and  _439
REMARK  176  A    between atoms: _439  and  _440
REMARK  177  A    between atoms: _444  and  _446
REMARK  178  A    between atoms: _446  and  _447
REMARK  179  A    between atoms: _446  and  _449
REMARK  180  A    between atoms: _449  and  _450
REMARK  181  A    between atoms: _453  and  _455
REMARK  182  A    between atoms: _455  and  _456
REMARK  183  A    between atoms: _455  and  _458
REMARK  184  A    between atoms: _461  and  _463
REMARK  185  A    between atoms: _463  and  _464
REMARK  186  A    between atoms: _463  and  _466
REMARK  187  A    between atoms: _469  and  _471
REMARK  188  A    between atoms: _471  and  _472
REMARK  189  A    between atoms: _471  and  _474
REMARK  190  A    between atoms: _474  and  _475
REMARK  191  A    between atoms: _478  and  _480
REMARK  192  A    between atoms: _480  and  _481
REMARK  193  A    between atoms: _480  and  _483
REMARK  194  A    between atoms: _483  and  _484
REMARK  195  A    between atoms: _487  and  _489
REMARK  196  A    between atoms: _489  and  _490
REMARK  197  A    between atoms: _489  and  _492
REMARK  198  A    between atoms: _492  and  _493
REMARK  199  A    between atoms: _496  and  _498
REMARK  200  A    between atoms: _498  and  _499
REMARK  201  A    between atoms: _498  and  _501
REMARK  202  A    between atoms: _501  and  _502
REMARK  203  A    between atoms: _506  and  _507
REMARK  204  A    between atoms: _512  and  _514
REMARK  205  A    between atoms: _514  and  _515
REMARK  206  A    between atoms: _514  and  _517
REMARK  207  A    between atoms: _517  and  _518
REMARK  208  A    between atoms: _521  and  _523
REMARK  209  A    between atoms: _523  and  _524
REMARK  210  A    between atoms: _523  and  _526
REMARK  211  A    between atoms: _529  and  _531
REMARK  212  A    between atoms: _531  and  _532
REMARK  213  A    between atoms: _535  and  _537
REMARK  214  A    between atoms: _537  and  _538
REMARK  215  A    between atoms: _537  and  _540
REMARK  216  A    between atoms: _540  and  _541
REMARK  217  A    between atoms: _546  and  _547
REMARK  218  A    between atoms: _549  and  _551
REMARK  219  A    between atoms: _551  and  _552
REMARK  220  A    between atoms: _551  and  _554
REMARK  221  A    between atoms: _554  and  _555
REMARK  222  A    between atoms: _557  and  _559
REMARK  223  A    between atoms: _559  and  _560
REMARK  224  A    between atoms: _559  and  _562
REMARK  225  A    between atoms: _562  and  _563
REMARK  226  A    between atoms: _565  and  _567
REMARK  227  A    between atoms: _567  and  _568
REMARK  228  A    between atoms: _567  and  _570
REMARK  229  A    between atoms: _574  and  _575
REMARK  230  A    between atoms: _580  and  _582
REMARK  231  A    between atoms: _582  and  _583
REMARK  232  A    between atoms: _582  and  _585
REMARK  233  A    between atoms: _585  and  _586
REMARK  234  A    between atoms: _591  and  _592
REMARK  235  A    between atoms: _594  and  _596
REMARK  236  A    between atoms: _596  and  _597
REMARK  237  A    between atoms: _596  and  _599
REMARK  238  A    between atoms: _599  and  _600
REMARK  239  A    between atoms: _600  and  _601
REMARK  240  A    between atoms: _601  and  _602
REMARK  241  A    between atoms: _611  and  _613
REMARK  242  A    between atoms: _613  and  _614
REMARK  243  A    between atoms: _613  and  _616
REMARK  244  A    between atoms: _616  and  _617
REMARK  245  A    between atoms: _617  and  _618
REMARK  246  A    between atoms: _620  and  _622
REMARK  247  A    between atoms: _622  and  _623
REMARK  248  A    between atoms: _622  and  _625
REMARK  249  A    between atoms: _628  and  _630
REMARK  250  A    between atoms: _630  and  _631
REMARK  251  A    between atoms: _630  and  _633
REMARK  252  A    between atoms: _633  and  _634
REMARK                            x       y       z     vdW  Elec       q    Type
REMARK                         _______ _______ _______ _____ _____    ______ ____
ROOT
ATOM      1  CA  TYR A   7      24.602  82.124   0.042  0.00  0.00    +0.153 C 
ENDROOT
BRANCH   1   2
ATOM      2  C   TYR A   7      24.550  80.594  -0.231  0.00  0.00    +0.241 C 
ATOM      3  O   TYR A   7      24.061  79.836   0.580  0.00  0.00    -0.273 OA
ATOM      4  N   SER A   8      25.038  80.185  -1.399  0.00  0.00    -0.295 N 
ATOM      5  H   SER A   8      25.422  80.901  -2.049  0.00  0.00    +0.150 HD
BRANCH   4   6
ATOM      6  CA  SER A   8      25.065  78.777  -1.822  0.00  0.00    +0.178 C 
BRANCH   6   7
ATOM      7  C   SER A   8      26.008  78.658  -3.002  0.00  0.00    +0.243 C 
ATOM      8  O   SER A   8      26.565  79.668  -3.459  0.00  0.00    -0.273 OA
ATOM      9  N   SER A   9      26.133  77.438  -3.524  0.00  0.00    -0.295 N 
ATOM     10  H   SER A   9      25.651  76.647  -3.051  0.00  0.00    +0.150 HD
BRANCH   9  11
ATOM     11  CA  SER A   9      26.918  77.154  -4.734  0.00  0.00    +0.178 C 
BRANCH  11  12
ATOM     12  C   SER A   9      26.265  77.616  -6.013  0.00  0.00    +0.243 C 
ATOM     13  N   VAL A  10      25.022  78.072  -5.937  0.00  0.00    -0.297 N 
ATOM     14  H   VAL A  10      24.569  78.201  -5.010  0.00  0.00    +0.150 HD
ATOM     15  O   SER A   9      26.864  77.507  -7.083  0.00  0.00    -0.273 OA
BRANCH  13  16
ATOM     16  CA  VAL A  10      24.290  78.394  -7.165  0.00  0.00    +0.149 C 
BRANCH  16  17
ATOM     17  C   VAL A  10      25.005  79.469  -8.013  0.00  0.00    +0.244 C 
ATOM     18  N   PRO A  11      25.342  80.637  -7.425  0.00  0.00    -0.272 N 
ATOM     19  CD  PRO A  11      24.983  81.172  -6.103  0.00  0.00    +0.094 C 
ATOM     20  CG  PRO A  11      25.982  82.269  -5.922  0.00  0.00    +0.024 C 
ATOM     21  CB  PRO A  11      26.142  82.847  -7.297  0.00  0.00    +0.031 C 
ATOM     22  CA  PRO A  11      25.991  81.660  -8.255  0.00  0.00    +0.152 C 
ATOM     23  O   VAL A  10      25.265  79.239  -9.185  0.00  0.00    -0.273 OA
BRANCH  22  24
ATOM     24  C   PRO A  11      27.357  81.228  -8.803  0.00  0.00    +0.241 C 
ATOM     25  N   TYR A  12      28.052  80.361  -8.063  0.00  0.00    -0.298 N 
ATOM     26  H   TYR A  12      27.672  80.093  -7.133  0.00  0.00    +0.150 HD
ATOM     27  O   PRO A  11      27.740  81.659  -9.896  0.00  0.00    -0.273 OA
BRANCH  25  28
ATOM     28  CA  TYR A  12      29.316  79.769  -8.490  0.00  0.00    +0.141 C 
BRANCH  28  29
ATOM     29  C   TYR A  12      29.101  78.846  -9.709  0.00  0.00    +0.227 C 
ATOM     30  O   TYR A  12      29.739  79.025 -10.739  0.00  0.00    -0.286 OA
ENDBRANCH  28  29
BRANCH  28  31
ATOM     31  CB  TYR A  12      29.938  78.943  -7.358  0.00  0.00    +0.054 C 
BRANCH  31  32
ATOM     32  CG  TYR A  12      30.400  79.756  -6.154  0.00  0.00    -0.020 A 
ATOM     33  CD2 TYR A  12      29.489  80.205  -5.199  0.00  0.00    -0.001 A 
ATOM     34  CE2 TYR A  12      29.896  80.963  -4.093  0.00  0.00    +0.036 A 
ATOM     35  CZ  TYR A  12      31.239  81.272  -3.937  0.00  0.00    +0.134 A 
ATOM     36  CE1 TYR A  12      32.164  80.811  -4.865  0.00  0.00    +0.036 A 
ATOM     37  CD1 TYR A  12      31.740  80.063  -5.975  0.00  0.00    -0.001 A 
BRANCH  35  38
ATOM     38  OH  TYR A  12      31.654  82.024  -2.829  0.00  0.00    -0.506 OA
ATOM     39  HH  TYR A  12      32.104  82.849  -3.141  0.00  0.00    +0.292 HD
ENDBRANCH  35  38
ENDBRANCH  31  32
ENDBRANCH  28  31
ENDBRANCH  25  28
ENDBRANCH  22  24
ENDBRANCH  16  17
BRANCH  16  40
ATOM     40  CB  VAL A  10      22.777  78.713  -6.912  0.00  0.00    +0.027 C 
ATOM     41  CG2 VAL A  10      22.049  77.466  -6.367  0.00  0.00    +0.002 C 
ATOM     42  CG1 VAL A  10      22.104  79.209  -8.205  0.00  0.00    +0.002 C 
ENDBRANCH  16  40
ENDBRANCH  13  16
ENDBRANCH  11  12
BRANCH  11  43
ATOM     43  CB  SER A   9      27.128  75.641  -4.884  0.00  0.00    +0.166 C 
BRANCH  43  44
ATOM     44  OG  SER A   9      27.703  75.102  -3.724  0.00  0.00    -0.380 OA
ATOM     45  H   SER A   9      27.829  74.127  -3.842  0.00  0.00    +0.211 HD
ENDBRANCH  43  44
ENDBRANCH  11  43
ENDBRANCH   9  11
ENDBRANCH   6   7
BRANCH   6  46
ATOM     46  CB  SER A   8      23.663  78.313  -2.249  0.00  0.00    +0.166 C 
BRANCH  46  47
ATOM     47  OG  SER A   8      23.343  78.689  -3.590  0.00  0.00    -0.380 OA
ATOM     48  H   SER A   8      23.375  79.675  -3.672  0.00  0.00    +0.211 HD
ENDBRANCH  46  47
ENDBRANCH   6  46
ENDBRANCH   4   6
ENDBRANCH   1   2
BRANCH   1  50
ATOM     49  C   ALA A   6      22.180  82.457  -0.129  0.00  0.00    +0.241 C 
ATOM     50  N   TYR A   7      23.331  82.682   0.500  0.00  0.00    -0.297 N 
ATOM     51  H   TYR A   7      23.326  83.279   1.352  0.00  0.00    +0.150 HD
ATOM     52  O   ALA A   6      22.098  81.746  -1.142  0.00  0.00    -0.273 OA
BRANCH  49  53
ATOM     53  CA  ALA A   6      20.930  83.163   0.434  0.00  0.00    +0.149 C 
ATOM     54  CB  ALA A   6      20.644  84.420  -0.355  0.00  0.00    +0.031 C 
BRANCH  53  57
ATOM     55  C   VAL A   5      20.878  82.588   2.815  0.00  0.00    +0.241 C 
ATOM     56  O   VAL A   5      20.645  81.397   2.574  0.00  0.00    -0.273 OA
ATOM     57  N   ALA A   6      21.034  83.494   1.858  0.00  0.00    -0.297 N 
ATOM     58  H   ALA A   6      21.238  84.477   2.129  0.00  0.00    +0.150 HD
BRANCH  55  59
ATOM     59  CA  VAL A   5      21.054  83.077   4.263  0.00  0.00    +0.149 C 
BRANCH  59  61
ATOM     60  C   ASP A   4      23.373  83.882   4.350  0.00  0.00    +0.241 C 
ATOM     61  N   VAL A   5      22.059  84.128   4.347  0.00  0.00    -0.297 N 
ATOM     62  H   VAL A   5      21.739  85.116   4.407  0.00  0.00    +0.150 HD
ATOM     63  O   ASP A   4      23.857  82.751   4.279  0.00  0.00    -0.273 OA
BRANCH  60  64
ATOM     64  CA  ASP A   4      24.286  85.099   4.407  0.00  0.00    +0.160 C 
BRANCH  64  66
ATOM     65  C   PRO A   3      23.387  86.322   2.470  0.00  0.00    +0.241 C 
ATOM     66  N   ASP A   4      23.689  86.288   3.776  0.00  0.00    -0.297 N 
ATOM     67  H   ASP A   4      23.496  87.126   4.361  0.00  0.00    +0.150 HD
ATOM     68  O   PRO A   3      23.602  85.387   1.687  0.00  0.00    -0.273 OA
BRANCH  65  75
ATOM     69  C   ASP A   2      20.896  87.539   3.536  0.00  0.00    +0.244 C 
ATOM     70  O   ASP A   2      20.754  86.329   3.332  0.00  0.00    -0.273 OA
ATOM     71  N   PRO A   3      21.855  88.255   2.922  0.00  0.00    -0.272 N 
ATOM     72  CD  PRO A   3      22.220  89.673   3.099  0.00  0.00    +0.094 C 
ATOM     73  CG  PRO A   3      23.020  89.967   1.838  0.00  0.00    +0.024 C 
ATOM     74  CB  PRO A   3      23.763  88.667   1.605  0.00  0.00    +0.031 C 
ATOM     75  CA  PRO A   3      22.718  87.594   1.931  0.00  0.00    +0.152 C 
BRANCH  69  76
ATOM     76  CA  ASP A   2      19.969  88.286   4.535  0.00  0.00    +0.160 C 
BRANCH  76  78
ATOM     77  C   ILE A   1      18.248  88.920   2.928  0.00  0.00    +0.238 C 
ATOM     78  N   ASP A   2      18.605  88.265   4.032  0.00  0.00    -0.297 N 
ATOM     79  H   ASP A   2      17.885  87.722   4.550  0.00  0.00    +0.150 HD
ATOM     80  O   ILE A   1      18.977  89.747   2.374  0.00  0.00    -0.274 OA
BRANCH  77  81
ATOM     81  CA  ILE A   1      16.868  88.629   2.362  0.00  0.00    +0.145 C 
BRANCH  81  82
ATOM     82  CB  ILE A   1      17.014  87.839   1.038  0.00  0.00    +0.025 C 
ATOM     83  CG2 ILE A   1      17.745  86.496   1.267  0.00  0.00    +0.002 C 
BRANCH  82  84
ATOM     84  CG1 ILE A   1      15.645  87.625   0.345  0.00  0.00    +0.002 C 
ATOM     85  CD1 ILE A   1      14.676  86.671   1.070  0.00  0.00    +0.000 C 
ENDBRANCH  82  84
ENDBRANCH  81  82
BRANCH  81  86
ATOM     86  N   ILE A   1      16.200  89.915   2.151  0.00  0.00    -0.238 NA
ATOM     87  H   ILE A   1      16.563  90.561   1.421  0.00  0.00    +0.142 HD
ENDBRANCH  81  86
ENDBRANCH  77  81
ENDBRANCH  76  78
BRANCH  76  88
ATOM     88  CB  ASP A   2      20.029  87.649   5.927  0.00  0.00    +0.143 C 
BRANCH  88  89
ATOM     89  CG  ASP A   2      21.419  87.686   6.542  0.00  0.00    +0.367 C 
ATOM     90  OD2 ASP A   2      21.520  87.376   7.742  0.00  0.00    -0.246 OA
ATOM     91  OD1 ASP A   2      22.414  88.000   5.846  0.00  0.00    -0.246 OA
ENDBRANCH  88  89
ENDBRANCH  76  88
ENDBRANCH  69  76
ENDBRANCH  65  75
ENDBRANCH  64  66
BRANCH  64  92
ATOM     92  CB  ASP A   4      24.719  85.368   5.852  0.00  0.00    +0.143 C 
BRANCH  92  93
ATOM     93  CG  ASP A   4      25.951  86.264   5.941  0.00  0.00    +0.367 C 
ATOM     94  OD2 ASP A   4      26.202  86.841   7.012  0.00  0.00    -0.246 OA
ATOM     95  OD1 ASP A   4      26.688  86.383   4.946  0.00  0.00    -0.246 OA
ENDBRANCH  92  93
ENDBRANCH  64  92
ENDBRANCH  60  64
ENDBRANCH  59  61
BRANCH  59  96
ATOM     96  CB  VAL A   5      19.734  83.554   4.910  0.00  0.00    +0.027 C 
ATOM     97  CG2 VAL A   5      19.950  83.683   6.425  0.00  0.00    +0.002 C 
ATOM     98  CG1 VAL A   5      18.577  82.626   4.600  0.00  0.00    +0.002 C 
ENDBRANCH  59  96
ENDBRANCH  55  59
ENDBRANCH  53  57
ENDBRANCH  49  53
ENDBRANCH   1  50
BRANCH   1  99
ATOM     99  CB  TYR A   7      25.720  82.457   1.034  0.00  0.00    +0.055 C 
BRANCH  99 100
ATOM    100  CG  TYR A   7      27.079  81.982   0.557  0.00  0.00    -0.020 A 
ATOM    101  CD2 TYR A   7      27.586  80.748   0.962  0.00  0.00    -0.001 A 
ATOM    102  CE2 TYR A   7      28.835  80.291   0.523  0.00  0.00    +0.036 A 
ATOM    103  CZ  TYR A   7      29.591  81.090  -0.337  0.00  0.00    +0.134 A 
ATOM    104  CE1 TYR A   7      29.105  82.331  -0.759  0.00  0.00    +0.036 A 
ATOM    105  CD1 TYR A   7      27.852  82.771  -0.310  0.00  0.00    -0.001 A 
BRANCH 103 106
ATOM    106  OH  TYR A   7      30.826  80.651  -0.780  0.00  0.00    -0.506 OA
ATOM    107  HH  TYR A   7      31.223  81.334  -1.377  0.00  0.00    +0.292 HD
ENDBRANCH 103 106
ENDBRANCH  99 100
ENDBRANCH   1  99
TORSDOF 40
REMARK  Name = ../refined-set-2016/3fh7/3fh7_pocket.pdb
REMARK  252 active torsions:
REMARK  status: ('A' for Active; 'I' for Inactive)
REMARK    1  A    between atoms: _1  and  _3
REMARK    2  A    between atoms: _3  and  _4
REMARK    3  A    between atoms: _3  and  _6
REMARK    4  A    between atoms: _8  and  _10
REMARK    5  A    between atoms: _10  and  _11
REMARK    6  A    between atoms: _10  and  _13
REMARK    7  A    between atoms: _13  and  _14
REMARK    8  A    between atoms: _16  and  _18
REMARK    9  A    between atoms: _18  and  _19
REMARK   10  A    between atoms: _18  and  _21
REMARK   11  A    between atoms: _21  and  _22
REMARK   12  A    between atoms: _22  and  _23
REMARK   13  A    between atoms: _28  and  _30
REMARK   14  A    between atoms: _30  and  _31
REMARK   15  A    between atoms: _30  and  _33
REMARK   16  A    between atoms: _35  and  _37
REMARK   17  A    between atoms: _37  and  _38
REMARK   18  A    between atoms: _37  and  _40
REMARK   19  A    between atoms: _40  and  _41
REMARK   20  A    between atoms: _41  and  _42
REMARK   21  A    between atoms: _47  and  _49
REMARK   22  A    between atoms: _49  and  _50
REMARK   23  A    between atoms: _53  and  _55
REMARK   24  A    between atoms: _55  and  _56
REMARK   25  A    between atoms: _55  and  _58
REMARK   26  A    between atoms: _58  and  _59
REMARK   27  A    between atoms: _62  and  _64
REMARK   28  A    between atoms: _64  and  _65
REMARK   29  A    between atoms: _64  and  _67
REMARK   30  A    between atoms: _67  and  _68
REMARK   31  A    between atoms: _73  and  _75
REMARK   32  A    between atoms: _75  and  _76
REMARK   33  A    between atoms: _75  and  _78
REMARK   34  A    between atoms: _78  and  _79
REMARK   35  A    between atoms: _84  and  _85
REMARK   36  A    between atoms: _87  and  _89
REMARK   37  A    between atoms: _89  and  _90
REMARK   38  A    between atoms: _89  and  _92
REMARK   39  A    between atoms: _92  and  _93
REMARK   40  A    between atoms: _100  and  _101
REMARK   41  A    between atoms: _106  and  _108
REMARK   42  A    between atoms: _108  and  _109
REMARK   43  A    between atoms: _108  and  _111
REMARK   44  A    between atoms: _111  and  _112
REMARK   45  A    between atoms: _117  and  _118
REMARK   46  A    between atoms: _120  and  _122
REMARK   47  A    between atoms: _122  and  _123
REMARK   48  A    between atoms: _125  and  _127
REMARK   49  A    between atoms: _127  and  _128
REMARK   50  A    between atoms: _130  and  _132
REMARK   51  A    between atoms: _132  and  _133
REMARK   52  A    between atoms: _132  and  _135
REMARK   53  A    between atoms: _135  and  _136
REMARK   54  A    between atoms: _136  and  _137
REMARK   55  A    between atoms: _139  and  _141
REMARK   56  A    between atoms: _141  and  _142
REMARK   57  A    between atoms: _141  and  _144
REMARK   58  A    between atoms: _144  and  _145
REMARK   59  A    between atoms: _145  and  _146
REMARK   60  A    between atoms: _149  and  _151
REMARK   61  A    between atoms: _151  and  _152
REMARK   62  A    between atoms: _151  and  _154
REMARK   63  A    between atoms: _154  and  _155
REMARK   64  A    between atoms: _160  and  _162
REMARK   65  A    between atoms: _162  and  _163
REMARK   66  A    between atoms: _162  and  _165
REMARK   67  A    between atoms: _165  and  _166
REMARK   68  A    between atoms: _169  and  _171
REMARK   69  A    between atoms: _171  and  _172
REMARK   70  A    between atoms: _171  and  _174
REMARK   71  A    between atoms: _174  and  _175
REMARK   72  A    between atoms: _181  and  _183
REMARK   73  A    between atoms: _183  and  _184
REMARK   74  A    between atoms: _183  and  _186
REMARK   75  A    between atoms: _189  and  _191
REMARK   76  A    between atoms: _191  and  _192
REMARK   77  A    between atoms: _191  and  _194
REMARK   78  A    between atoms: _194  and  _195
REMARK   79  A    between atoms: _199  and  ZN_637
REMARK   80  A    between atoms: _200  and  _202
REMARK   81  A    between atoms: _202  and  _203
REMARK   82  A    between atoms: _202  and  _205
REMARK   83  A    between atoms: _205  and  _206
REMARK   84  A    between atoms: _206  and  _207
REMARK   85  A    between atoms: _210  and  _212
REMARK   86  A    between atoms: _212  and  _213
REMARK   87  A    between atoms: _212  and  _215
REMARK   88  A    between atoms: _215  and  _216
REMARK   89  A    between atoms: _219  and  _221
REMARK   90  A    between atoms: _221  and  _222
REMARK   91  A    between atoms: _221  and  _224
REMARK   92  A    between atoms: _224  and  _225
REMARK   93  A    between atoms: _229  and  ZN_637
REMARK   94  A    between atoms: _230  and  _232
REMARK   95  A    between atoms: _232  and  _233
REMARK   96  A    between atoms: _232  and  _235
REMARK   97  A    between atoms: _235  and  _236
REMARK   98  A    between atoms: _239  and  _241
REMARK   99  A    between atoms: _241  and  _242
REMARK  100  A    between atoms: _241  and  _244
REMARK  101  A    between atoms: _244  and  _245
REMARK  102  A    between atoms: _250  and  _252
REMARK  103  A    between atoms: _252  and  _253
REMARK  104  A    between atoms: _252  and  _255
REMARK  105  A    between atoms: _255  and  _256
REMARK  106  A    between atoms: _261  and  _263
REMARK  107  A    between atoms: _263  and  _264
REMARK  108  A    between atoms: _263  and  _266
REMARK  109  A    between atoms: _266  and  _267
REMARK  110  A    between atoms: _270  and  _272
REMARK  111  A    between atoms: _272  and  _273
REMARK  112  A    between atoms: _272  and  _275
REMARK  113  A    between atoms: _275  and  _276
REMARK  114  A    between atoms: _286  and  _288
REMARK  115  A    between atoms: _288  and  _289
REMARK  116  A    between atoms: _288  and  _291
REMARK  117  A    between atoms: _291  and  _292
REMARK  118  A    between atoms: _295  and  _297
REMARK  119  A    between atoms: _297  and  _298
REMARK  120  A    between atoms: _297  and  _300
REMARK  121  A    between atoms: _300  and  _301
REMARK  122  A    between atoms: _306  and  _308
REMARK  123  A    between atoms: _308  and  _309
REMARK  124  A    between atoms: _308  and  _311
REMARK  125  A    between atoms: _311  and  _312
REMARK  126  A    between atoms: _318  and  _320
REMARK  127  A    between atoms: _320  and  _321
REMARK  128  A    between atoms: _320  and  _323
REMARK  129  A    between atoms: _323  and  _324
REMARK  130  A    between atoms: _334  and  _336
REMARK  131  A    between atoms: _336  and  _337
REMARK  132  A    between atoms: _336  and  _339
REMARK  133  A    between atoms: _339  and  _340
REMARK  134  A    between atoms: _343  and  _345
REMARK  135  A    between atoms: _345  and  _346
REMARK  136  A    between atoms: _345  and  _348
REMARK  137  A    between atoms: _348  and  _349
REMARK  138  A    between atoms: _354  and  _356
REMARK  139  A    between atoms: _356  and  _357
REMARK  140  A    between atoms: _356  and  _359
REMARK  141  A    between atoms: _359  and  _360
REMARK  142  A    between atoms: _360  and  _361
REMARK  143  A    between atoms: _361  and  _362
REMARK  144  A    between atoms: _362  and  ZN_637
REMARK  145  A    between atoms: _364  and  _366
REMARK  146  A    between atoms: _366  and  _367
REMARK  147  A    between atoms: _366  and  _369
REMARK  148  A    between atoms: _369  and  _370
REMARK  149  A    between atoms: _373  and  _375
REMARK  150  A    between atoms: _375  and  _376
REMARK  151  A    between atoms: _375  and  _378
REMARK  152  A    between atoms: _381  and  _383
REMARK  153  A    between atoms: _383  and  _384
REMARK  154  A    between atoms: _383  and  _386
REMARK  155  A    between atoms: _386  and  _387
REMARK  156  A    between atoms: _387  and  _388
REMARK  157  A    between atoms: _391  and  _393
REMARK  158  A    between atoms: _393  and  _394
REMARK  159  A    between atoms: _393  and  _396
REMARK  160  A    between atoms: _396  and  _397
REMARK  161  A    between atoms: _404  and  _405
REMARK  162  A    between atoms: _410  and  _412
REMARK  163  A    between atoms: _412  and  _413
REMARK  164  A    between atoms: _412  and  _415
REMARK  165  A    between atoms: _415  and  _416
REMARK  166  A    between atoms: _422  and  _424
REMARK  167  A    between atoms: _424  and  _425
REMARK  168  A    between atoms: _424  and  _427
REMARK  169  A    between atoms: _427  and  _428
REMARK  170  A    between atoms: _431  and  _433
REMARK  171  A    between atoms: _433  and  _434
REMARK  172  A    between atoms: _433  and  _436
REMARK  173  A    between atoms: _436  and  _437
REMARK  174  A    between atoms: _437  and  _438
REMARK  175  A    between atoms: _438  and  _439
REMARK  176  A    between atoms: _439  and  _440
REMARK  177  A    between atoms: _444  and  _446
REMARK  178  A    between atoms: _446  and  _447
REMARK  179  A    between atoms: _446  and  _449
REMARK  180  A    between atoms: _449  and  _450
REMARK  181  A    between atoms: _453  and  _455
REMARK  182  A    between atoms: _455  and  _456
REMARK  183  A    between atoms: _455  and  _458
REMARK  184  A    between atoms: _461  and  _463
REMARK  185  A    between atoms: _463  and  _464
REMARK  186  A    between atoms: _463  and  _466
REMARK  187  A    between atoms: _469  and  _471
REMARK  188  A    between atoms: _471  and  _472
REMARK  189  A    between atoms: _471  and  _474
REMARK  190  A    between atoms: _474  and  _475
REMARK  191  A    between atoms: _478  and  _480
REMARK  192  A    between atoms: _480  and  _481
REMARK  193  A    between atoms: _480  and  _483
REMARK  194  A    between atoms: _483  and  _484
REMARK  195  A    between atoms: _487  and  _489
REMARK  196  A    between atoms: _489  and  _490
REMARK  197  A    between atoms: _489  and  _492
REMARK  198  A    between atoms: _492  and  _493
REMARK  199  A    between atoms: _496  and  _498
REMARK  200  A    between atoms: _498  and  _499
REMARK  201  A    between atoms: _498  and  _501
REMARK  202  A    between atoms: _501  and  _502
REMARK  203  A    between atoms: _506  and  _507
REMARK  204  A    between atoms: _512  and  _514
REMARK  205  A    between atoms: _514  and  _515
REMARK  206  A    between atoms: _514  and  _517
REMARK  207  A    between atoms: _517  and  _518
REMARK  208  A    between atoms: _521  and  _523
REMARK  209  A    between atoms: _523  and  _524
REMARK  210  A    between atoms: _523  and  _526
REMARK  211  A    between atoms: _529  and  _531
REMARK  212  A    between atoms: _531  and  _532
REMARK  213  A    between atoms: _535  and  _537
REMARK  214  A    between atoms: _537  and  _538
REMARK  215  A    between atoms: _537  and  _540
REMARK  216  A    between atoms: _540  and  _541
REMARK  217  A    between atoms: _546  and  _547
REMARK  218  A    between atoms: _549  and  _551
REMARK  219  A    between atoms: _551  and  _552
REMARK  220  A    between atoms: _551  and  _554
REMARK  221  A    between atoms: _554  and  _555
REMARK  222  A    between atoms: _557  and  _559
REMARK  223  A    between atoms: _559  and  _560
REMARK  224  A    between atoms: _559  and  _562
REMARK  225  A    between atoms: _562  and  _563
REMARK  226  A    between atoms: _565  and  _567
REMARK  227  A    between atoms: _567  and  _568
REMARK  228  A    between atoms: _567  and  _570
REMARK  229  A    between atoms: _574  and  _575
REMARK  230  A    between atoms: _580  and  _582
REMARK  231  A    between atoms: _582  and  _583
REMARK  232  A    between atoms: _582  and  _585
REMARK  233  A    between atoms: _585  and  _586
REMARK  234  A    between atoms: _591  and  _592
REMARK  235  A    between atoms: _594  and  _596
REMARK  236  A    between atoms: _596  and  _597
REMARK  237  A    between atoms: _596  and  _599
REMARK  238  A    between atoms: _599  and  _600
REMARK  239  A    between atoms: _600  and  _601
REMARK  240  A    between atoms: _601  and  _602
REMARK  241  A    between atoms: _611  and  _613
REMARK  242  A    between atoms: _613  and  _614
REMARK  243  A    between atoms: _613  and  _616
REMARK  244  A    between atoms: _616  and  _617
REMARK  245  A    between atoms: _617  and  _618
REMARK  246  A    between atoms: _620  and  _622
REMARK  247  A    between atoms: _622  and  _623
REMARK  248  A    between atoms: _622  and  _625
REMARK  249  A    between atoms: _628  and  _630
REMARK  250  A    between atoms: _630  and  _631
REMARK  251  A    between atoms: _630  and  _633
REMARK  252  A    between atoms: _633  and  _634
REMARK                            x       y       z     vdW  Elec       q    Type
REMARK                         _______ _______ _______ _____ _____    ______ ____
ROOT
ATOM      1  CA  ARG A   1      34.312  75.993   7.594  0.00  0.00    +0.145 C 
ENDROOT
BRANCH   1   2
ATOM      2  C   ARG A   1      32.889  75.563   7.294  0.00  0.00    +0.238 C 
ATOM      3  O   ARG A   1      32.563  74.382   7.416  0.00  0.00    -0.274 OA
ATOM      4  N   MET A   2      32.039  76.526   6.931  0.00  0.00    -0.298 N 
ATOM      5  H   MET A   2      32.407  77.476   6.722  0.00  0.00    +0.150 HD
BRANCH   4   6
ATOM      6  CA  MET A   2      30.593  76.275   6.819  0.00  0.00    +0.138 C 
BRANCH   6   7
ATOM      7  C   MET A   2      30.224  75.208   5.806  0.00  0.00    +0.227 C 
ATOM      8  O   MET A   2      29.273  74.458   6.037  0.00  0.00    -0.286 OA
ENDBRANCH   6   7
BRANCH   6   9
ATOM      9  CB  MET A   2      29.829  77.556   6.534  0.00  0.00    +0.039 C 
BRANCH   9  10
ATOM     10  CG  MET A   2      29.836  78.503   7.735  0.00  0.00    +0.060 C 
BRANCH  10  11
ATOM     11  SD  MET A   2      28.501  79.714   7.620  0.00  0.00    -0.139 S 
ATOM     12  CE  MET A   2      29.259  80.996   6.654  0.00  0.00    +0.069 C 
ENDBRANCH  10  11
ENDBRANCH   9  10
ENDBRANCH   6   9
ENDBRANCH   4   6
ENDBRANCH   1   2
BRANCH   1  13
ATOM     13  N   ARG A   1      34.559  75.609   8.980  0.00  0.00    -0.238 NA
ATOM     14  H   ARG A   1      35.209  74.827   9.198  0.00  0.00    +0.142 HD
ENDBRANCH   1  13
BRANCH   1  15
ATOM     15  CB  ARG A   1      35.324  75.346   6.645  0.00  0.00    +0.030 C 
BRANCH  15  16
ATOM     16  CG  ARG A   1      35.122  75.709   5.163  0.00  0.00    +0.045 C 
BRANCH  16  17
ATOM     17  CD  ARG A   1      36.081  74.873   4.352  0.00  0.00    +0.174 C 
BRANCH  17  18
ATOM     18  NE  ARG A   1      36.012  75.153   2.914  0.00  0.00    -0.265 N 
ATOM     19  HE  ARG A   1      35.281  75.812   2.577  0.00  0.00    +0.259 HD
ATOM     20  CZ  ARG A   1      36.831  74.612   2.017  0.00  0.00    +0.342 C 
ATOM     21  NH2 ARG A   1      37.809  73.788   2.400  0.00  0.00    -0.292 N 
ATOM     22 HH21 ARG A   1      37.936  73.564   3.408  0.00  0.00    +0.255 HD
ATOM     23 HH22 ARG A   1      38.444  73.370   1.691  0.00  0.00    +0.255 HD
ATOM     24  NH1 ARG A   1      36.675  74.911   0.735  0.00  0.00    -0.292 N 
ATOM     25 HH11 ARG A   1      35.919  75.562   0.441  0.00  0.00    +0.255 HD
ATOM     26 HH12 ARG A   1      37.309  74.495   0.023  0.00  0.00    +0.255 HD
ENDBRANCH  17  18
ENDBRANCH  16  17
ENDBRANCH  15  16
ENDBRANCH   1  15
TORSDOF 11
REMARK  Name = ../refined-set-2016/3fh7/3fh7_pocket.pdb
REMARK  252 active torsions:
REMARK  status: ('A' for Active; 'I' for Inactive)
REMARK    1  A    between atoms: _1  and  _3
REMARK    2  A    between atoms: _3  and  _4
REMARK    3  A    between atoms: _3  and  _6
REMARK    4  A    between atoms: _8  and  _10
REMARK    5  A    between atoms: _10  and  _11
REMARK    6  A    between atoms: _10  and  _13
REMARK    7  A    between atoms: _13  and  _14
REMARK    8  A    between atoms: _16  and  _18
REMARK    9  A    between atoms: _18  and  _19
REMARK   10  A    between atoms: _18  and  _21
REMARK   11  A    between atoms: _21  and  _22
REMARK   12  A    between atoms: _22  and  _23
REMARK   13  A    between atoms: _28  and  _30
REMARK   14  A    between atoms: _30  and  _31
REMARK   15  A    between atoms: _30  and  _33
REMARK   16  A    between atoms: _35  and  _37
REMARK   17  A    between atoms: _37  and  _38
REMARK   18  A    between atoms: _37  and  _40
REMARK   19  A    between atoms: _40  and  _41
REMARK   20  A    between atoms: _41  and  _42
REMARK   21  A    between atoms: _47  and  _49
REMARK   22  A    between atoms: _49  and  _50
REMARK   23  A    between atoms: _53  and  _55
REMARK   24  A    between atoms: _55  and  _56
REMARK   25  A    between atoms: _55  and  _58
REMARK   26  A    between atoms: _58  and  _59
REMARK   27  A    between atoms: _62  and  _64
REMARK   28  A    between atoms: _64  and  _65
REMARK   29  A    between atoms: _64  and  _67
REMARK   30  A    between atoms: _67  and  _68
REMARK   31  A    between atoms: _73  and  _75
REMARK   32  A    between atoms: _75  and  _76
REMARK   33  A    between atoms: _75  and  _78
REMARK   34  A    between atoms: _78  and  _79
REMARK   35  A    between atoms: _84  and  _85
REMARK   36  A    between atoms: _87  and  _89
REMARK   37  A    between atoms: _89  and  _90
REMARK   38  A    between atoms: _89  and  _92
REMARK   39  A    between atoms: _92  and  _93
REMARK   40  A    between atoms: _100  and  _101
REMARK   41  A    between atoms: _106  and  _108
REMARK   42  A    between atoms: _108  and  _109
REMARK   43  A    between atoms: _108  and  _111
REMARK   44  A    between atoms: _111  and  _112
REMARK   45  A    between atoms: _117  and  _118
REMARK   46  A    between atoms: _120  and  _122
REMARK   47  A    between atoms: _122  and  _123
REMARK   48  A    between atoms: _125  and  _127
REMARK   49  A    between atoms: _127  and  _128
REMARK   50  A    between atoms: _130  and  _132
REMARK   51  A    between atoms: _132  and  _133
REMARK   52  A    between atoms: _132  and  _135
REMARK   53  A    between atoms: _135  and  _136
REMARK   54  A    between atoms: _136  and  _137
REMARK   55  A    between atoms: _139  and  _141
REMARK   56  A    between atoms: _141  and  _142
REMARK   57  A    between atoms: _141  and  _144
REMARK   58  A    between atoms: _144  and  _145
REMARK   59  A    between atoms: _145  and  _146
REMARK   60  A    between atoms: _149  and  _151
REMARK   61  A    between atoms: _151  and  _152
REMARK   62  A    between atoms: _151  and  _154
REMARK   63  A    between atoms: _154  and  _155
REMARK   64  A    between atoms: _160  and  _162
REMARK   65  A    between atoms: _162  and  _163
REMARK   66  A    between atoms: _162  and  _165
REMARK   67  A    between atoms: _165  and  _166
REMARK   68  A    between atoms: _169  and  _171
REMARK   69  A    between atoms: _171  and  _172
REMARK   70  A    between atoms: _171  and  _174
REMARK   71  A    between atoms: _174  and  _175
REMARK   72  A    between atoms: _181  and  _183
REMARK   73  A    between atoms: _183  and  _184
REMARK   74  A    between atoms: _183  and  _186
REMARK   75  A    between atoms: _189  and  _191
REMARK   76  A    between atoms: _191  and  _192
REMARK   77  A    between atoms: _191  and  _194
REMARK   78  A    between atoms: _194  and  _195
REMARK   79  A    between atoms: _199  and  ZN_637
REMARK   80  A    between atoms: _200  and  _202
REMARK   81  A    between atoms: _202  and  _203
REMARK   82  A    between atoms: _202  and  _205
REMARK   83  A    between atoms: _205  and  _206
REMARK   84  A    between atoms: _206  and  _207
REMARK   85  A    between atoms: _210  and  _212
REMARK   86  A    between atoms: _212  and  _213
REMARK   87  A    between atoms: _212  and  _215
REMARK   88  A    between atoms: _215  and  _216
REMARK   89  A    between atoms: _219  and  _221
REMARK   90  A    between atoms: _221  and  _222
REMARK   91  A    between atoms: _221  and  _224
REMARK   92  A    between atoms: _224  and  _225
REMARK   93  A    between atoms: _229  and  ZN_637
REMARK   94  A    between atoms: _230  and  _232
REMARK   95  A    between atoms: _232  and  _233
REMARK   96  A    between atoms: _232  and  _235
REMARK   97  A    between atoms: _235  and  _236
REMARK   98  A    between atoms: _239  and  _241
REMARK   99  A    between atoms: _241  and  _242
REMARK  100  A    between atoms: _241  and  _244
REMARK  101  A    between atoms: _244  and  _245
REMARK  102  A    between atoms: _250  and  _252
REMARK  103  A    between atoms: _252  and  _253
REMARK  104  A    between atoms: _252  and  _255
REMARK  105  A    between atoms: _255  and  _256
REMARK  106  A    between atoms: _261  and  _263
REMARK  107  A    between atoms: _263  and  _264
REMARK  108  A    between atoms: _263  and  _266
REMARK  109  A    between atoms: _266  and  _267
REMARK  110  A    between atoms: _270  and  _272
REMARK  111  A    between atoms: _272  and  _273
REMARK  112  A    between atoms: _272  and  _275
REMARK  113  A    between atoms: _275  and  _276
REMARK  114  A    between atoms: _286  and  _288
REMARK  115  A    between atoms: _288  and  _289
REMARK  116  A    between atoms: _288  and  _291
REMARK  117  A    between atoms: _291  and  _292
REMARK  118  A    between atoms: _295  and  _297
REMARK  119  A    between atoms: _297  and  _298
REMARK  120  A    between atoms: _297  and  _300
REMARK  121  A    between atoms: _300  and  _301
REMARK  122  A    between atoms: _306  and  _308
REMARK  123  A    between atoms: _308  and  _309
REMARK  124  A    between atoms: _308  and  _311
REMARK  125  A    between atoms: _311  and  _312
REMARK  126  A    between atoms: _318  and  _320
REMARK  127  A    between atoms: _320  and  _321
REMARK  128  A    between atoms: _320  and  _323
REMARK  129  A    between atoms: _323  and  _324
REMARK  130  A    between atoms: _334  and  _336
REMARK  131  A    between atoms: _336  and  _337
REMARK  132  A    between atoms: _336  and  _339
REMARK  133  A    between atoms: _339  and  _340
REMARK  134  A    between atoms: _343  and  _345
REMARK  135  A    between atoms: _345  and  _346
REMARK  136  A    between atoms: _345  and  _348
REMARK  137  A    between atoms: _348  and  _349
REMARK  138  A    between atoms: _354  and  _356
REMARK  139  A    between atoms: _356  and  _357
REMARK  140  A    between atoms: _356  and  _359
REMARK  141  A    between atoms: _359  and  _360
REMARK  142  A    between atoms: _360  and  _361
REMARK  143  A    between atoms: _361  and  _362
REMARK  144  A    between atoms: _362  and  ZN_637
REMARK  145  A    between atoms: _364  and  _366
REMARK  146  A    between atoms: _366  and  _367
REMARK  147  A    between atoms: _366  and  _369
REMARK  148  A    between atoms: _369  and  _370
REMARK  149  A    between atoms: _373  and  _375
REMARK  150  A    between atoms: _375  and  _376
REMARK  151  A    between atoms: _375  and  _378
REMARK  152  A    between atoms: _381  and  _383
REMARK  153  A    between atoms: _383  and  _384
REMARK  154  A    between atoms: _383  and  _386
REMARK  155  A    between atoms: _386  and  _387
REMARK  156  A    between atoms: _387  and  _388
REMARK  157  A    between atoms: _391  and  _393
REMARK  158  A    between atoms: _393  and  _394
REMARK  159  A    between atoms: _393  and  _396
REMARK  160  A    between atoms: _396  and  _397
REMARK  161  A    between atoms: _404  and  _405
REMARK  162  A    between atoms: _410  and  _412
REMARK  163  A    between atoms: _412  and  _413
REMARK  164  A    between atoms: _412  and  _415
REMARK  165  A    between atoms: _415  and  _416
REMARK  166  A    between atoms: _422  and  _424
REMARK  167  A    between atoms: _424  and  _425
REMARK  168  A    between atoms: _424  and  _427
REMARK  169  A    between atoms: _427  and  _428
REMARK  170  A    between atoms: _431  and  _433
REMARK  171  A    between atoms: _433  and  _434
REMARK  172  A    between atoms: _433  and  _436
REMARK  173  A    between atoms: _436  and  _437
REMARK  174  A    between atoms: _437  and  _438
REMARK  175  A    between atoms: _438  and  _439
REMARK  176  A    between atoms: _439  and  _440
REMARK  177  A    between atoms: _444  and  _446
REMARK  178  A    between atoms: _446  and  _447
REMARK  179  A    between atoms: _446  and  _449
REMARK  180  A    between atoms: _449  and  _450
REMARK  181  A    between atoms: _453  and  _455
REMARK  182  A    between atoms: _455  and  _456
REMARK  183  A    between atoms: _455  and  _458
REMARK  184  A    between atoms: _461  and  _463
REMARK  185  A    between atoms: _463  and  _464
REMARK  186  A    between atoms: _463  and  _466
REMARK  187  A    between atoms: _469  and  _471
REMARK  188  A    between atoms: _471  and  _472
REMARK  189  A    between atoms: _471  and  _474
REMARK  190  A    between atoms: _474  and  _475
REMARK  191  A    between atoms: _478  and  _480
REMARK  192  A    between atoms: _480  and  _481
REMARK  193  A    between atoms: _480  and  _483
REMARK  194  A    between atoms: _483  and  _484
REMARK  195  A    between atoms: _487  and  _489
REMARK  196  A    between atoms: _489  and  _490
REMARK  197  A    between atoms: _489  and  _492
REMARK  198  A    between atoms: _492  and  _493
REMARK  199  A    between atoms: _496  and  _498
REMARK  200  A    between atoms: _498  and  _499
REMARK  201  A    between atoms: _498  and  _501
REMARK  202  A    between atoms: _501  and  _502
REMARK  203  A    between atoms: _506  and  _507
REMARK  204  A    between atoms: _512  and  _514
REMARK  205  A    between atoms: _514  and  _515
REMARK  206  A    between atoms: _514  and  _517
REMARK  207  A    between atoms: _517  and  _518
REMARK  208  A    between atoms: _521  and  _523
REMARK  209  A    between atoms: _523  and  _524
REMARK  210  A    between atoms: _523  and  _526
REMARK  211  A    between atoms: _529  and  _531
REMARK  212  A    between atoms: _531  and  _532
REMARK  213  A    between atoms: _535  and  _537
REMARK  214  A    between atoms: _537  and  _538
REMARK  215  A    between atoms: _537  and  _540
REMARK  216  A    between atoms: _540  and  _541
REMARK  217  A    between atoms: _546  and  _547
REMARK  218  A    between atoms: _549  and  _551
REMARK  219  A    between atoms: _551  and  _552
REMARK  220  A    between atoms: _551  and  _554
REMARK  221  A    between atoms: _554  and  _555
REMARK  222  A    between atoms: _557  and  _559
REMARK  223  A    between atoms: _559  and  _560
REMARK  224  A    between atoms: _559  and  _562
REMARK  225  A    between atoms: _562  and  _563
REMARK  226  A    between atoms: _565  and  _567
REMARK  227  A    between atoms: _567  and  _568
REMARK  228  A    between atoms: _567  and  _570
REMARK  229  A    between atoms: _574  and  _575
REMARK  230  A    between atoms: _580  and  _582
REMARK  231  A    between atoms: _582  and  _583
REMARK  232  A    between atoms: _582  and  _585
REMARK  233  A    between atoms: _585  and  _586
REMARK  234  A    between atoms: _591  and  _592
REMARK  235  A    between atoms: _594  and  _596
REMARK  236  A    between atoms: _596  and  _597
REMARK  237  A    between atoms: _596  and  _599
REMARK  238  A    between atoms: _599  and  _600
REMARK  239  A    between atoms: _600  and  _601
REMARK  240  A    between atoms: _601  and  _602
REMARK  241  A    between atoms: _611  and  _613
REMARK  242  A    between atoms: _613  and  _614
REMARK  243  A    between atoms: _613  and  _616
REMARK  244  A    between atoms: _616  and  _617
REMARK  245  A    between atoms: _617  and  _618
REMARK  246  A    between atoms: _620  and  _622
REMARK  247  A    between atoms: _622  and  _623
REMARK  248  A    between atoms: _622  and  _625
REMARK  249  A    between atoms: _628  and  _630
REMARK  250  A    between atoms: _630  and  _631
REMARK  251  A    between atoms: _630  and  _633
REMARK  252  A    between atoms: _633  and  _634
REMARK                            x       y       z     vdW  Elec       q    Type
REMARK                         _______ _______ _______ _____ _____    ______ ____
ROOT
ATOM      1  CA  VAL A   1      27.676  84.105  11.236  0.00  0.00    +0.133 C 
ENDROOT
BRANCH   1   2
ATOM      2  CB  VAL A   1      28.349  84.587   9.909  0.00  0.00    +0.023 C 
ATOM      3  CG2 VAL A   1      28.458  86.135   9.886  0.00  0.00    +0.002 C 
ATOM      4  CG1 VAL A   1      27.593  84.088   8.688  0.00  0.00    +0.002 C 
ENDBRANCH   1   2
BRANCH   1   5
ATOM      5  N   VAL A   1      28.461  84.466  12.409  0.00  0.00    -0.239 NA
ATOM      6  H   VAL A   1      29.456  84.743  12.288  0.00  0.00    +0.142 HD
ENDBRANCH   1   5
BRANCH   1   7
ATOM      7  C   VAL A   1      27.389  82.595  11.227  0.00  0.00    +0.224 C 
ATOM      8  O   VAL A   1      26.233  82.165  11.028  0.00  0.00    -0.287 OA
ENDBRANCH   1   7
TORSDOF 3
REMARK  Name = ../refined-set-2016/3fh7/3fh7_pocket.pdb
REMARK  252 active torsions:
REMARK  status: ('A' for Active; 'I' for Inactive)
REMARK    1  A    between atoms: _1  and  _3
REMARK    2  A    between atoms: _3  and  _4
REMARK    3  A    between atoms: _3  and  _6
REMARK    4  A    between atoms: _8  and  _10
REMARK    5  A    between atoms: _10  and  _11
REMARK    6  A    between atoms: _10  and  _13
REMARK    7  A    between atoms: _13  and  _14
REMARK    8  A    between atoms: _16  and  _18
REMARK    9  A    between atoms: _18  and  _19
REMARK   10  A    between atoms: _18  and  _21
REMARK   11  A    between atoms: _21  and  _22
REMARK   12  A    between atoms: _22  and  _23
REMARK   13  A    between atoms: _28  and  _30
REMARK   14  A    between atoms: _30  and  _31
REMARK   15  A    between atoms: _30  and  _33
REMARK   16  A    between atoms: _35  and  _37
REMARK   17  A    between atoms: _37  and  _38
REMARK   18  A    between atoms: _37  and  _40
REMARK   19  A    between atoms: _40  and  _41
REMARK   20  A    between atoms: _41  and  _42
REMARK   21  A    between atoms: _47  and  _49
REMARK   22  A    between atoms: _49  and  _50
REMARK   23  A    between atoms: _53  and  _55
REMARK   24  A    between atoms: _55  and  _56
REMARK   25  A    between atoms: _55  and  _58
REMARK   26  A    between atoms: _58  and  _59
REMARK   27  A    between atoms: _62  and  _64
REMARK   28  A    between atoms: _64  and  _65
REMARK   29  A    between atoms: _64  and  _67
REMARK   30  A    between atoms: _67  and  _68
REMARK   31  A    between atoms: _73  and  _75
REMARK   32  A    between atoms: _75  and  _76
REMARK   33  A    between atoms: _75  and  _78
REMARK   34  A    between atoms: _78  and  _79
REMARK   35  A    between atoms: _84  and  _85
REMARK   36  A    between atoms: _87  and  _89
REMARK   37  A    between atoms: _89  and  _90
REMARK   38  A    between atoms: _89  and  _92
REMARK   39  A    between atoms: _92  and  _93
REMARK   40  A    between atoms: _100  and  _101
REMARK   41  A    between atoms: _106  and  _108
REMARK   42  A    between atoms: _108  and  _109
REMARK   43  A    between atoms: _108  and  _111
REMARK   44  A    between atoms: _111  and  _112
REMARK   45  A    between atoms: _117  and  _118
REMARK   46  A    between atoms: _120  and  _122
REMARK   47  A    between atoms: _122  and  _123
REMARK   48  A    between atoms: _125  and  _127
REMARK   49  A    between atoms: _127  and  _128
REMARK   50  A    between atoms: _130  and  _132
REMARK   51  A    between atoms: _132  and  _133
REMARK   52  A    between atoms: _132  and  _135
REMARK   53  A    between atoms: _135  and  _136
REMARK   54  A    between atoms: _136  and  _137
REMARK   55  A    between atoms: _139  and  _141
REMARK   56  A    between atoms: _141  and  _142
REMARK   57  A    between atoms: _141  and  _144
REMARK   58  A    between atoms: _144  and  _145
REMARK   59  A    between atoms: _145  and  _146
REMARK   60  A    between atoms: _149  and  _151
REMARK   61  A    between atoms: _151  and  _152
REMARK   62  A    between atoms: _151  and  _154
REMARK   63  A    between atoms: _154  and  _155
REMARK   64  A    between atoms: _160  and  _162
REMARK   65  A    between atoms: _162  and  _163
REMARK   66  A    between atoms: _162  and  _165
REMARK   67  A    between atoms: _165  and  _166
REMARK   68  A    between atoms: _169  and  _171
REMARK   69  A    between atoms: _171  and  _172
REMARK   70  A    between atoms: _171  and  _174
REMARK   71  A    between atoms: _174  and  _175
REMARK   72  A    between atoms: _181  and  _183
REMARK   73  A    between atoms: _183  and  _184
REMARK   74  A    between atoms: _183  and  _186
REMARK   75  A    between atoms: _189  and  _191
REMARK   76  A    between atoms: _191  and  _192
REMARK   77  A    between atoms: _191  and  _194
REMARK   78  A    between atoms: _194  and  _195
REMARK   79  A    between atoms: _199  and  ZN_637
REMARK   80  A    between atoms: _200  and  _202
REMARK   81  A    between atoms: _202  and  _203
REMARK   82  A    between atoms: _202  and  _205
REMARK   83  A    between atoms: _205  and  _206
REMARK   84  A    between atoms: _206  and  _207
REMARK   85  A    between atoms: _210  and  _212
REMARK   86  A    between atoms: _212  and  _213
REMARK   87  A    between atoms: _212  and  _215
REMARK   88  A    between atoms: _215  and  _216
REMARK   89  A    between atoms: _219  and  _221
REMARK   90  A    between atoms: _221  and  _222
REMARK   91  A    between atoms: _221  and  _224
REMARK   92  A    between atoms: _224  and  _225
REMARK   93  A    between atoms: _229  and  ZN_637
REMARK   94  A    between atoms: _230  and  _232
REMARK   95  A    between atoms: _232  and  _233
REMARK   96  A    between atoms: _232  and  _235
REMARK   97  A    between atoms: _235  and  _236
REMARK   98  A    between atoms: _239  and  _241
REMARK   99  A    between atoms: _241  and  _242
REMARK  100  A    between atoms: _241  and  _244
REMARK  101  A    between atoms: _244  and  _245
REMARK  102  A    between atoms: _250  and  _252
REMARK  103  A    between atoms: _252  and  _253
REMARK  104  A    between atoms: _252  and  _255
REMARK  105  A    between atoms: _255  and  _256
REMARK  106  A    between atoms: _261  and  _263
REMARK  107  A    between atoms: _263  and  _264
REMARK  108  A    between atoms: _263  and  _266
REMARK  109  A    between atoms: _266  and  _267
REMARK  110  A    between atoms: _270  and  _272
REMARK  111  A    between atoms: _272  and  _273
REMARK  112  A    between atoms: _272  and  _275
REMARK  113  A    between atoms: _275  and  _276
REMARK  114  A    between atoms: _286  and  _288
REMARK  115  A    between atoms: _288  and  _289
REMARK  116  A    between atoms: _288  and  _291
REMARK  117  A    between atoms: _291  and  _292
REMARK  118  A    between atoms: _295  and  _297
REMARK  119  A    between atoms: _297  and  _298
REMARK  120  A    between atoms: _297  and  _300
REMARK  121  A    between atoms: _300  and  _301
REMARK  122  A    between atoms: _306  and  _308
REMARK  123  A    between atoms: _308  and  _309
REMARK  124  A    between atoms: _308  and  _311
REMARK  125  A    between atoms: _311  and  _312
REMARK  126  A    between atoms: _318  and  _320
REMARK  127  A    between atoms: _320  and  _321
REMARK  128  A    between atoms: _320  and  _323
REMARK  129  A    between atoms: _323  and  _324
REMARK  130  A    between atoms: _334  and  _336
REMARK  131  A    between atoms: _336  and  _337
REMARK  132  A    between atoms: _336  and  _339
REMARK  133  A    between atoms: _339  and  _340
REMARK  134  A    between atoms: _343  and  _345
REMARK  135  A    between atoms: _345  and  _346
REMARK  136  A    between atoms: _345  and  _348
REMARK  137  A    between atoms: _348  and  _349
REMARK  138  A    between atoms: _354  and  _356
REMARK  139  A    between atoms: _356  and  _357
REMARK  140  A    between atoms: _356  and  _359
REMARK  141  A    between atoms: _359  and  _360
REMARK  142  A    between atoms: _360  and  _361
REMARK  143  A    between atoms: _361  and  _362
REMARK  144  A    between atoms: _362  and  ZN_637
REMARK  145  A    between atoms: _364  and  _366
REMARK  146  A    between atoms: _366  and  _367
REMARK  147  A    between atoms: _366  and  _369
REMARK  148  A    between atoms: _369  and  _370
REMARK  149  A    between atoms: _373  and  _375
REMARK  150  A    between atoms: _375  and  _376
REMARK  151  A    between atoms: _375  and  _378
REMARK  152  A    between atoms: _381  and  _383
REMARK  153  A    between atoms: _383  and  _384
REMARK  154  A    between atoms: _383  and  _386
REMARK  155  A    between atoms: _386  and  _387
REMARK  156  A    between atoms: _387  and  _388
REMARK  157  A    between atoms: _391  and  _393
REMARK  158  A    between atoms: _393  and  _394
REMARK  159  A    between atoms: _393  and  _396
REMARK  160  A    between atoms: _396  and  _397
REMARK  161  A    between atoms: _404  and  _405
REMARK  162  A    between atoms: _410  and  _412
REMARK  163  A    between atoms: _412  and  _413
REMARK  164  A    between atoms: _412  and  _415
REMARK  165  A    between atoms: _415  and  _416
REMARK  166  A    between atoms: _422  and  _424
REMARK  167  A    between atoms: _424  and  _425
REMARK  168  A    between atoms: _424  and  _427
REMARK  169  A    between atoms: _427  and  _428
REMARK  170  A    between atoms: _431  and  _433
REMARK  171  A    between atoms: _433  and  _434
REMARK  172  A    between atoms: _433  and  _436
REMARK  173  A    between atoms: _436  and  _437
REMARK  174  A    between atoms: _437  and  _438
REMARK  175  A    between atoms: _438  and  _439
REMARK  176  A    between atoms: _439  and  _440
REMARK  177  A    between atoms: _444  and  _446
REMARK  178  A    between atoms: _446  and  _447
REMARK  179  A    between atoms: _446  and  _449
REMARK  180  A    between atoms: _449  and  _450
REMARK  181  A    between atoms: _453  and  _455
REMARK  182  A    between atoms: _455  and  _456
REMARK  183  A    between atoms: _455  and  _458
REMARK  184  A    between atoms: _461  and  _463
REMARK  185  A    between atoms: _463  and  _464
REMARK  186  A    between atoms: _463  and  _466
REMARK  187  A    between atoms: _469  and  _471
REMARK  188  A    between atoms: _471  and  _472
REMARK  189  A    between atoms: _471  and  _474
REMARK  190  A    between atoms: _474  and  _475
REMARK  191  A    between atoms: _478  and  _480
REMARK  192  A    between atoms: _480  and  _481
REMARK  193  A    between atoms: _480  and  _483
REMARK  194  A    between atoms: _483  and  _484
REMARK  195  A    between atoms: _487  and  _489
REMARK  196  A    between atoms: _489  and  _490
REMARK  197  A    between atoms: _489  and  _492
REMARK  198  A    between atoms: _492  and  _493
REMARK  199  A    between atoms: _496  and  _498
REMARK  200  A    between atoms: _498  and  _499
REMARK  201  A    between atoms: _498  and  _501
REMARK  202  A    between atoms: _501  and  _502
REMARK  203  A    between atoms: _506  and  _507
REMARK  204  A    between atoms: _512  and  _514
REMARK  205  A    between atoms: _514  and  _515
REMARK  206  A    between atoms: _514  and  _517
REMARK  207  A    between atoms: _517  and  _518
REMARK  208  A    between atoms: _521  and  _523
REMARK  209  A    between atoms: _523  and  _524
REMARK  210  A    between atoms: _523  and  _526
REMARK  211  A    between atoms: _529  and  _531
REMARK  212  A    between atoms: _531  and  _532
REMARK  213  A    between atoms: _535  and  _537
REMARK  214  A    between atoms: _537  and  _538
REMARK  215  A    between atoms: _537  and  _540
REMARK  216  A    between atoms: _540  and  _541
REMARK  217  A    between atoms: _546  and  _547
REMARK  218  A    between atoms: _549  and  _551
REMARK  219  A    between atoms: _551  and  _552
REMARK  220  A    between atoms: _551  and  _554
REMARK  221  A    between atoms: _554  and  _555
REMARK  222  A    between atoms: _557  and  _559
REMARK  223  A    between atoms: _559  and  _560
REMARK  224  A    between atoms: _559  and  _562
REMARK  225  A    between atoms: _562  and  _563
REMARK  226  A    between atoms: _565  and  _567
REMARK  227  A    between atoms: _567  and  _568
REMARK  228  A    between atoms: _567  and  _570
REMARK  229  A    between atoms: _574  and  _575
REMARK  230  A    between atoms: _580  and  _582
REMARK  231  A    between atoms: _582  and  _583
REMARK  232  A    between atoms: _582  and  _585
REMARK  233  A    between atoms: _585  and  _586
REMARK  234  A    between atoms: _591  and  _592
REMARK  235  A    between atoms: _594  and  _596
REMARK  236  A    between atoms: _596  and  _597
REMARK  237  A    between atoms: _596  and  _599
REMARK  238  A    between atoms: _599  and  _600
REMARK  239  A    between atoms: _600  and  _601
REMARK  240  A    between atoms: _601  and  _602
REMARK  241  A    between atoms: _611  and  _613
REMARK  242  A    between atoms: _613  and  _614
REMARK  243  A    between atoms: _613  and  _616
REMARK  244  A    between atoms: _616  and  _617
REMARK  245  A    between atoms: _617  and  _618
REMARK  246  A    between atoms: _620  and  _622
REMARK  247  A    between atoms: _622  and  _623
REMARK  248  A    between atoms: _622  and  _625
REMARK  249  A    between atoms: _628  and  _630
REMARK  250  A    between atoms: _630  and  _631
REMARK  251  A    between atoms: _630  and  _633
REMARK  252  A    between atoms: _633  and  _634
REMARK                            x       y       z     vdW  Elec       q    Type
REMARK                         _______ _______ _______ _____ _____    ______ ____
ROOT
ATOM      1  CA  LEU A   1      23.230  79.738  10.272  0.00  0.00    +0.133 C 
ENDROOT
BRANCH   1   2
ATOM      2  N   LEU A   1      23.682  80.648  11.318  0.00  0.00    -0.239 NA
ATOM      3  H   LEU A   1      24.648  81.029  11.267  0.00  0.00    +0.142 HD
ENDBRANCH   1   2
BRANCH   1   4
ATOM      4  C   LEU A   1      23.033  78.298  10.758  0.00  0.00    +0.224 C 
ATOM      5  O   LEU A   1      22.043  77.663  10.398  0.00  0.00    -0.287 OA
ENDBRANCH   1   4
BRANCH   1   6
ATOM      6  CB  LEU A   1      24.175  79.806   9.066  0.00  0.00    +0.025 C 
BRANCH   6   7
ATOM      7  CG  LEU A   1      24.128  81.153   8.327  0.00  0.00    +0.002 C 
ATOM      8  CD2 LEU A   1      22.807  81.302   7.590  0.00  0.00    +0.000 C 
ATOM      9  CD1 LEU A   1      25.329  81.304   7.345  0.00  0.00    +0.000 C 
ENDBRANCH   6   7
ENDBRANCH   1   6
TORSDOF 4
REMARK  Name = ../refined-set-2016/3fh7/3fh7_pocket.pdb
REMARK  252 active torsions:
REMARK  status: ('A' for Active; 'I' for Inactive)
REMARK    1  A    between atoms: _1  and  _3
REMARK    2  A    between atoms: _3  and  _4
REMARK    3  A    between atoms: _3  and  _6
REMARK    4  A    between atoms: _8  and  _10
REMARK    5  A    between atoms: _10  and  _11
REMARK    6  A    between atoms: _10  and  _13
REMARK    7  A    between atoms: _13  and  _14
REMARK    8  A    between atoms: _16  and  _18
REMARK    9  A    between atoms: _18  and  _19
REMARK   10  A    between atoms: _18  and  _21
REMARK   11  A    between atoms: _21  and  _22
REMARK   12  A    between atoms: _22  and  _23
REMARK   13  A    between atoms: _28  and  _30
REMARK   14  A    between atoms: _30  and  _31
REMARK   15  A    between atoms: _30  and  _33
REMARK   16  A    between atoms: _35  and  _37
REMARK   17  A    between atoms: _37  and  _38
REMARK   18  A    between atoms: _37  and  _40
REMARK   19  A    between atoms: _40  and  _41
REMARK   20  A    between atoms: _41  and  _42
REMARK   21  A    between atoms: _47  and  _49
REMARK   22  A    between atoms: _49  and  _50
REMARK   23  A    between atoms: _53  and  _55
REMARK   24  A    between atoms: _55  and  _56
REMARK   25  A    between atoms: _55  and  _58
REMARK   26  A    between atoms: _58  and  _59
REMARK   27  A    between atoms: _62  and  _64
REMARK   28  A    between atoms: _64  and  _65
REMARK   29  A    between atoms: _64  and  _67
REMARK   30  A    between atoms: _67  and  _68
REMARK   31  A    between atoms: _73  and  _75
REMARK   32  A    between atoms: _75  and  _76
REMARK   33  A    between atoms: _75  and  _78
REMARK   34  A    between atoms: _78  and  _79
REMARK   35  A    between atoms: _84  and  _85
REMARK   36  A    between atoms: _87  and  _89
REMARK   37  A    between atoms: _89  and  _90
REMARK   38  A    between atoms: _89  and  _92
REMARK   39  A    between atoms: _92  and  _93
REMARK   40  A    between atoms: _100  and  _101
REMARK   41  A    between atoms: _106  and  _108
REMARK   42  A    between atoms: _108  and  _109
REMARK   43  A    between atoms: _108  and  _111
REMARK   44  A    between atoms: _111  and  _112
REMARK   45  A    between atoms: _117  and  _118
REMARK   46  A    between atoms: _120  and  _122
REMARK   47  A    between atoms: _122  and  _123
REMARK   48  A    between atoms: _125  and  _127
REMARK   49  A    between atoms: _127  and  _128
REMARK   50  A    between atoms: _130  and  _132
REMARK   51  A    between atoms: _132  and  _133
REMARK   52  A    between atoms: _132  and  _135
REMARK   53  A    between atoms: _135  and  _136
REMARK   54  A    between atoms: _136  and  _137
REMARK   55  A    between atoms: _139  and  _141
REMARK   56  A    between atoms: _141  and  _142
REMARK   57  A    between atoms: _141  and  _144
REMARK   58  A    between atoms: _144  and  _145
REMARK   59  A    between atoms: _145  and  _146
REMARK   60  A    between atoms: _149  and  _151
REMARK   61  A    between atoms: _151  and  _152
REMARK   62  A    between atoms: _151  and  _154
REMARK   63  A    between atoms: _154  and  _155
REMARK   64  A    between atoms: _160  and  _162
REMARK   65  A    between atoms: _162  and  _163
REMARK   66  A    between atoms: _162  and  _165
REMARK   67  A    between atoms: _165  and  _166
REMARK   68  A    between atoms: _169  and  _171
REMARK   69  A    between atoms: _171  and  _172
REMARK   70  A    between atoms: _171  and  _174
REMARK   71  A    between atoms: _174  and  _175
REMARK   72  A    between atoms: _181  and  _183
REMARK   73  A    between atoms: _183  and  _184
REMARK   74  A    between atoms: _183  and  _186
REMARK   75  A    between atoms: _189  and  _191
REMARK   76  A    between atoms: _191  and  _192
REMARK   77  A    between atoms: _191  and  _194
REMARK   78  A    between atoms: _194  and  _195
REMARK   79  A    between atoms: _199  and  ZN_637
REMARK   80  A    between atoms: _200  and  _202
REMARK   81  A    between atoms: _202  and  _203
REMARK   82  A    between atoms: _202  and  _205
REMARK   83  A    between atoms: _205  and  _206
REMARK   84  A    between atoms: _206  and  _207
REMARK   85  A    between atoms: _210  and  _212
REMARK   86  A    between atoms: _212  and  _213
REMARK   87  A    between atoms: _212  and  _215
REMARK   88  A    between atoms: _215  and  _216
REMARK   89  A    between atoms: _219  and  _221
REMARK   90  A    between atoms: _221  and  _222
REMARK   91  A    between atoms: _221  and  _224
REMARK   92  A    between atoms: _224  and  _225
REMARK   93  A    between atoms: _229  and  ZN_637
REMARK   94  A    between atoms: _230  and  _232
REMARK   95  A    between atoms: _232  and  _233
REMARK   96  A    between atoms: _232  and  _235
REMARK   97  A    between atoms: _235  and  _236
REMARK   98  A    between atoms: _239  and  _241
REMARK   99  A    between atoms: _241  and  _242
REMARK  100  A    between atoms: _241  and  _244
REMARK  101  A    between atoms: _244  and  _245
REMARK  102  A    between atoms: _250  and  _252
REMARK  103  A    between atoms: _252  and  _253
REMARK  104  A    between atoms: _252  and  _255
REMARK  105  A    between atoms: _255  and  _256
REMARK  106  A    between atoms: _261  and  _263
REMARK  107  A    between atoms: _263  and  _264
REMARK  108  A    between atoms: _263  and  _266
REMARK  109  A    between atoms: _266  and  _267
REMARK  110  A    between atoms: _270  and  _272
REMARK  111  A    between atoms: _272  and  _273
REMARK  112  A    between atoms: _272  and  _275
REMARK  113  A    between atoms: _275  and  _276
REMARK  114  A    between atoms: _286  and  _288
REMARK  115  A    between atoms: _288  and  _289
REMARK  116  A    between atoms: _288  and  _291
REMARK  117  A    between atoms: _291  and  _292
REMARK  118  A    between atoms: _295  and  _297
REMARK  119  A    between atoms: _297  and  _298
REMARK  120  A    between atoms: _297  and  _300
REMARK  121  A    between atoms: _300  and  _301
REMARK  122  A    between atoms: _306  and  _308
REMARK  123  A    between atoms: _308  and  _309
REMARK  124  A    between atoms: _308  and  _311
REMARK  125  A    between atoms: _311  and  _312
REMARK  126  A    between atoms: _318  and  _320
REMARK  127  A    between atoms: _320  and  _321
REMARK  128  A    between atoms: _320  and  _323
REMARK  129  A    between atoms: _323  and  _324
REMARK  130  A    between atoms: _334  and  _336
REMARK  131  A    between atoms: _336  and  _337
REMARK  132  A    between atoms: _336  and  _339
REMARK  133  A    between atoms: _339  and  _340
REMARK  134  A    between atoms: _343  and  _345
REMARK  135  A    between atoms: _345  and  _346
REMARK  136  A    between atoms: _345  and  _348
REMARK  137  A    between atoms: _348  and  _349
REMARK  138  A    between atoms: _354  and  _356
REMARK  139  A    between atoms: _356  and  _357
REMARK  140  A    between atoms: _356  and  _359
REMARK  141  A    between atoms: _359  and  _360
REMARK  142  A    between atoms: _360  and  _361
REMARK  143  A    between atoms: _361  and  _362
REMARK  144  A    between atoms: _362  and  ZN_637
REMARK  145  A    between atoms: _364  and  _366
REMARK  146  A    between atoms: _366  and  _367
REMARK  147  A    between atoms: _366  and  _369
REMARK  148  A    between atoms: _369  and  _370
REMARK  149  A    between atoms: _373  and  _375
REMARK  150  A    between atoms: _375  and  _376
REMARK  151  A    between atoms: _375  and  _378
REMARK  152  A    between atoms: _381  and  _383
REMARK  153  A    between atoms: _383  and  _384
REMARK  154  A    between atoms: _383  and  _386
REMARK  155  A    between atoms: _386  and  _387
REMARK  156  A    between atoms: _387  and  _388
REMARK  157  A    between atoms: _391  and  _393
REMARK  158  A    between atoms: _393  and  _394
REMARK  159  A    between atoms: _393  and  _396
REMARK  160  A    between atoms: _396  and  _397
REMARK  161  A    between atoms: _404  and  _405
REMARK  162  A    between atoms: _410  and  _412
REMARK  163  A    between atoms: _412  and  _413
REMARK  164  A    between atoms: _412  and  _415
REMARK  165  A    between atoms: _415  and  _416
REMARK  166  A    between atoms: _422  and  _424
REMARK  167  A    between atoms: _424  and  _425
REMARK  168  A    between atoms: _424  and  _427
REMARK  169  A    between atoms: _427  and  _428
REMARK  170  A    between atoms: _431  and  _433
REMARK  171  A    between atoms: _433  and  _434
REMARK  172  A    between atoms: _433  and  _436
REMARK  173  A    between atoms: _436  and  _437
REMARK  174  A    between atoms: _437  and  _438
REMARK  175  A    between atoms: _438  and  _439
REMARK  176  A    between atoms: _439  and  _440
REMARK  177  A    between atoms: _444  and  _446
REMARK  178  A    between atoms: _446  and  _447
REMARK  179  A    between atoms: _446  and  _449
REMARK  180  A    between atoms: _449  and  _450
REMARK  181  A    between atoms: _453  and  _455
REMARK  182  A    between atoms: _455  and  _456
REMARK  183  A    between atoms: _455  and  _458
REMARK  184  A    between atoms: _461  and  _463
REMARK  185  A    between atoms: _463  and  _464
REMARK  186  A    between atoms: _463  and  _466
REMARK  187  A    between atoms: _469  and  _471
REMARK  188  A    between atoms: _471  and  _472
REMARK  189  A    between atoms: _471  and  _474
REMARK  190  A    between atoms: _474  and  _475
REMARK  191  A    between atoms: _478  and  _480
REMARK  192  A    between atoms: _480  and  _481
REMARK  193  A    between atoms: _480  and  _483
REMARK  194  A    between atoms: _483  and  _484
REMARK  195  A    between atoms: _487  and  _489
REMARK  196  A    between atoms: _489  and  _490
REMARK  197  A    between atoms: _489  and  _492
REMARK  198  A    between atoms: _492  and  _493
REMARK  199  A    between atoms: _496  and  _498
REMARK  200  A    between atoms: _498  and  _499
REMARK  201  A    between atoms: _498  and  _501
REMARK  202  A    between atoms: _501  and  _502
REMARK  203  A    between atoms: _506  and  _507
REMARK  204  A    between atoms: _512  and  _514
REMARK  205  A    between atoms: _514  and  _515
REMARK  206  A    between atoms: _514  and  _517
REMARK  207  A    between atoms: _517  and  _518
REMARK  208  A    between atoms: _521  and  _523
REMARK  209  A    between atoms: _523  and  _524
REMARK  210  A    between atoms: _523  and  _526
REMARK  211  A    between atoms: _529  and  _531
REMARK  212  A    between atoms: _531  and  _532
REMARK  213  A    between atoms: _535  and  _537
REMARK  214  A    between atoms: _537  and  _538
REMARK  215  A    between atoms: _537  and  _540
REMARK  216  A    between atoms: _540  and  _541
REMARK  217  A    between atoms: _546  and  _547
REMARK  218  A    between atoms: _549  and  _551
REMARK  219  A    between atoms: _551  and  _552
REMARK  220  A    between atoms: _551  and  _554
REMARK  221  A    between atoms: _554  and  _555
REMARK  222  A    between atoms: _557  and  _559
REMARK  223  A    between atoms: _559  and  _560
REMARK  224  A    between atoms: _559  and  _562
REMARK  225  A    between atoms: _562  and  _563
REMARK  226  A    between atoms: _565  and  _567
REMARK  227  A    between atoms: _567  and  _568
REMARK  228  A    between atoms: _567  and  _570
REMARK  229  A    between atoms: _574  and  _575
REMARK  230  A    between atoms: _580  and  _582
REMARK  231  A    between atoms: _582  and  _583
REMARK  232  A    between atoms: _582  and  _585
REMARK  233  A    between atoms: _585  and  _586
REMARK  234  A    between atoms: _591  and  _592
REMARK  235  A    between atoms: _594  and  _596
REMARK  236  A    between atoms: _596  and  _597
REMARK  237  A    between atoms: _596  and  _599
REMARK  238  A    between atoms: _599  and  _600
REMARK  239  A    between atoms: _600  and  _601
REMARK  240  A    between atoms: _601  and  _602
REMARK  241  A    between atoms: _611  and  _613
REMARK  242  A    between atoms: _613  and  _614
REMARK  243  A    between atoms: _613  and  _616
REMARK  244  A    between atoms: _616  and  _617
REMARK  245  A    between atoms: _617  and  _618
REMARK  246  A    between atoms: _620  and  _622
REMARK  247  A    between atoms: _622  and  _623
REMARK  248  A    between atoms: _622  and  _625
REMARK  249  A    between atoms: _628  and  _630
REMARK  250  A    between atoms: _630  and  _631
REMARK  251  A    between atoms: _630  and  _633
REMARK  252  A    between atoms: _633  and  _634
REMARK                            x       y       z     vdW  Elec       q    Type
REMARK                         _______ _______ _______ _____ _____    ______ ____
ROOT
ATOM      1  O   HOH     1      37.208  91.414   6.277  0.00  0.00    +0.000 OA
ENDROOT
TORSDOF 0
REMARK  Name = ../refined-set-2016/3fh7/3fh7_pocket.pdb
REMARK  252 active torsions:
REMARK  status: ('A' for Active; 'I' for Inactive)
REMARK    1  A    between atoms: _1  and  _3
REMARK    2  A    between atoms: _3  and  _4
REMARK    3  A    between atoms: _3  and  _6
REMARK    4  A    between atoms: _8  and  _10
REMARK    5  A    between atoms: _10  and  _11
REMARK    6  A    between atoms: _10  and  _13
REMARK    7  A    between atoms: _13  and  _14
REMARK    8  A    between atoms: _16  and  _18
REMARK    9  A    between atoms: _18  and  _19
REMARK   10  A    between atoms: _18  and  _21
REMARK   11  A    between atoms: _21  and  _22
REMARK   12  A    between atoms: _22  and  _23
REMARK   13  A    between atoms: _28  and  _30
REMARK   14  A    between atoms: _30  and  _31
REMARK   15  A    between atoms: _30  and  _33
REMARK   16  A    between atoms: _35  and  _37
REMARK   17  A    between atoms: _37  and  _38
REMARK   18  A    between atoms: _37  and  _40
REMARK   19  A    between atoms: _40  and  _41
REMARK   20  A    between atoms: _41  and  _42
REMARK   21  A    between atoms: _47  and  _49
REMARK   22  A    between atoms: _49  and  _50
REMARK   23  A    between atoms: _53  and  _55
REMARK   24  A    between atoms: _55  and  _56
REMARK   25  A    between atoms: _55  and  _58
REMARK   26  A    between atoms: _58  and  _59
REMARK   27  A    between atoms: _62  and  _64
REMARK   28  A    between atoms: _64  and  _65
REMARK   29  A    between atoms: _64  and  _67
REMARK   30  A    between atoms: _67  and  _68
REMARK   31  A    between atoms: _73  and  _75
REMARK   32  A    between atoms: _75  and  _76
REMARK   33  A    between atoms: _75  and  _78
REMARK   34  A    between atoms: _78  and  _79
REMARK   35  A    between atoms: _84  and  _85
REMARK   36  A    between atoms: _87  and  _89
REMARK   37  A    between atoms: _89  and  _90
REMARK   38  A    between atoms: _89  and  _92
REMARK   39  A    between atoms: _92  and  _93
REMARK   40  A    between atoms: _100  and  _101
REMARK   41  A    between atoms: _106  and  _108
REMARK   42  A    between atoms: _108  and  _109
REMARK   43  A    between atoms: _108  and  _111
REMARK   44  A    between atoms: _111  and  _112
REMARK   45  A    between atoms: _117  and  _118
REMARK   46  A    between atoms: _120  and  _122
REMARK   47  A    between atoms: _122  and  _123
REMARK   48  A    between atoms: _125  and  _127
REMARK   49  A    between atoms: _127  and  _128
REMARK   50  A    between atoms: _130  and  _132
REMARK   51  A    between atoms: _132  and  _133
REMARK   52  A    between atoms: _132  and  _135
REMARK   53  A    between atoms: _135  and  _136
REMARK   54  A    between atoms: _136  and  _137
REMARK   55  A    between atoms: _139  and  _141
REMARK   56  A    between atoms: _141  and  _142
REMARK   57  A    between atoms: _141  and  _144
REMARK   58  A    between atoms: _144  and  _145
REMARK   59  A    between atoms: _145  and  _146
REMARK   60  A    between atoms: _149  and  _151
REMARK   61  A    between atoms: _151  and  _152
REMARK   62  A    between atoms: _151  and  _154
REMARK   63  A    between atoms: _154  and  _155
REMARK   64  A    between atoms: _160  and  _162
REMARK   65  A    between atoms: _162  and  _163
REMARK   66  A    between atoms: _162  and  _165
REMARK   67  A    between atoms: _165  and  _166
REMARK   68  A    between atoms: _169  and  _171
REMARK   69  A    between atoms: _171  and  _172
REMARK   70  A    between atoms: _171  and  _174
REMARK   71  A    between atoms: _174  and  _175
REMARK   72  A    between atoms: _181  and  _183
REMARK   73  A    between atoms: _183  and  _184
REMARK   74  A    between atoms: _183  and  _186
REMARK   75  A    between atoms: _189  and  _191
REMARK   76  A    between atoms: _191  and  _192
REMARK   77  A    between atoms: _191  and  _194
REMARK   78  A    between atoms: _194  and  _195
REMARK   79  A    between atoms: _199  and  ZN_637
REMARK   80  A    between atoms: _200  and  _202
REMARK   81  A    between atoms: _202  and  _203
REMARK   82  A    between atoms: _202  and  _205
REMARK   83  A    between atoms: _205  and  _206
REMARK   84  A    between atoms: _206  and  _207
REMARK   85  A    between atoms: _210  and  _212
REMARK   86  A    between atoms: _212  and  _213
REMARK   87  A    between atoms: _212  and  _215
REMARK   88  A    between atoms: _215  and  _216
REMARK   89  A    between atoms: _219  and  _221
REMARK   90  A    between atoms: _221  and  _222
REMARK   91  A    between atoms: _221  and  _224
REMARK   92  A    between atoms: _224  and  _225
REMARK   93  A    between atoms: _229  and  ZN_637
REMARK   94  A    between atoms: _230  and  _232
REMARK   95  A    between atoms: _232  and  _233
REMARK   96  A    between atoms: _232  and  _235
REMARK   97  A    between atoms: _235  and  _236
REMARK   98  A    between atoms: _239  and  _241
REMARK   99  A    between atoms: _241  and  _242
REMARK  100  A    between atoms: _241  and  _244
REMARK  101  A    between atoms: _244  and  _245
REMARK  102  A    between atoms: _250  and  _252
REMARK  103  A    between atoms: _252  and  _253
REMARK  104  A    between atoms: _252  and  _255
REMARK  105  A    between atoms: _255  and  _256
REMARK  106  A    between atoms: _261  and  _263
REMARK  107  A    between atoms: _263  and  _264
REMARK  108  A    between atoms: _263  and  _266
REMARK  109  A    between atoms: _266  and  _267
REMARK  110  A    between atoms: _270  and  _272
REMARK  111  A    between atoms: _272  and  _273
REMARK  112  A    between atoms: _272  and  _275
REMARK  113  A    between atoms: _275  and  _276
REMARK  114  A    between atoms: _286  and  _288
REMARK  115  A    between atoms: _288  and  _289
REMARK  116  A    between atoms: _288  and  _291
REMARK  117  A    between atoms: _291  and  _292
REMARK  118  A    between atoms: _295  and  _297
REMARK  119  A    between atoms: _297  and  _298
REMARK  120  A    between atoms: _297  and  _300
REMARK  121  A    between atoms: _300  and  _301
REMARK  122  A    between atoms: _306  and  _308
REMARK  123  A    between atoms: _308  and  _309
REMARK  124  A    between atoms: _308  and  _311
REMARK  125  A    between atoms: _311  and  _312
REMARK  126  A    between atoms: _318  and  _320
REMARK  127  A    between atoms: _320  and  _321
REMARK  128  A    between atoms: _320  and  _323
REMARK  129  A    between atoms: _323  and  _324
REMARK  130  A    between atoms: _334  and  _336
REMARK  131  A    between atoms: _336  and  _337
REMARK  132  A    between atoms: _336  and  _339
REMARK  133  A    between atoms: _339  and  _340
REMARK  134  A    between atoms: _343  and  _345
REMARK  135  A    between atoms: _345  and  _346
REMARK  136  A    between atoms: _345  and  _348
REMARK  137  A    between atoms: _348  and  _349
REMARK  138  A    between atoms: _354  and  _356
REMARK  139  A    between atoms: _356  and  _357
REMARK  140  A    between atoms: _356  and  _359
REMARK  141  A    between atoms: _359  and  _360
REMARK  142  A    between atoms: _360  and  _361
REMARK  143  A    between atoms: _361  and  _362
REMARK  144  A    between atoms: _362  and  ZN_637
REMARK  145  A    between atoms: _364  and  _366
REMARK  146  A    between atoms: _366  and  _367
REMARK  147  A    between atoms: _366  and  _369
REMARK  148  A    between atoms: _369  and  _370
REMARK  149  A    between atoms: _373  and  _375
REMARK  150  A    between atoms: _375  and  _376
REMARK  151  A    between atoms: _375  and  _378
REMARK  152  A    between atoms: _381  and  _383
REMARK  153  A    between atoms: _383  and  _384
REMARK  154  A    between atoms: _383  and  _386
REMARK  155  A    between atoms: _386  and  _387
REMARK  156  A    between atoms: _387  and  _388
REMARK  157  A    between atoms: _391  and  _393
REMARK  158  A    between atoms: _393  and  _394
REMARK  159  A    between atoms: _393  and  _396
REMARK  160  A    between atoms: _396  and  _397
REMARK  161  A    between atoms: _404  and  _405
REMARK  162  A    between atoms: _410  and  _412
REMARK  163  A    between atoms: _412  and  _413
REMARK  164  A    between atoms: _412  and  _415
REMARK  165  A    between atoms: _415  and  _416
REMARK  166  A    between atoms: _422  and  _424
REMARK  167  A    between atoms: _424  and  _425
REMARK  168  A    between atoms: _424  and  _427
REMARK  169  A    between atoms: _427  and  _428
REMARK  170  A    between atoms: _431  and  _433
REMARK  171  A    between atoms: _433  and  _434
REMARK  172  A    between atoms: _433  and  _436
REMARK  173  A    between atoms: _436  and  _437
REMARK  174  A    between atoms: _437  and  _438
REMARK  175  A    between atoms: _438  and  _439
REMARK  176  A    between atoms: _439  and  _440
REMARK  177  A    between atoms: _444  and  _446
REMARK  178  A    between atoms: _446  and  _447
REMARK  179  A    between atoms: _446  and  _449
REMARK  180  A    between atoms: _449  and  _450
REMARK  181  A    between atoms: _453  and  _455
REMARK  182  A    between atoms: _455  and  _456
REMARK  183  A    between atoms: _455  and  _458
REMARK  184  A    between atoms: _461  and  _463
REMARK  185  A    between atoms: _463  and  _464
REMARK  186  A    between atoms: _463  and  _466
REMARK  187  A    between atoms: _469  and  _471
REMARK  188  A    between atoms: _471  and  _472
REMARK  189  A    between atoms: _471  and  _474
REMARK  190  A    between atoms: _474  and  _475
REMARK  191  A    between atoms: _478  and  _480
REMARK  192  A    between atoms: _480  and  _481
REMARK  193  A    between atoms: _480  and  _483
REMARK  194  A    between atoms: _483  and  _484
REMARK  195  A    between atoms: _487  and  _489
REMARK  196  A    between atoms: _489  and  _490
REMARK  197  A    between atoms: _489  and  _492
REMARK  198  A    between atoms: _492  and  _493
REMARK  199  A    between atoms: _496  and  _498
REMARK  200  A    between atoms: _498  and  _499
REMARK  201  A    between atoms: _498  and  _501
REMARK  202  A    between atoms: _501  and  _502
REMARK  203  A    between atoms: _506  and  _507
REMARK  204  A    between atoms: _512  and  _514
REMARK  205  A    between atoms: _514  and  _515
REMARK  206  A    between atoms: _514  and  _517
REMARK  207  A    between atoms: _517  and  _518
REMARK  208  A    between atoms: _521  and  _523
REMARK  209  A    between atoms: _523  and  _524
REMARK  210  A    between atoms: _523  and  _526
REMARK  211  A    between atoms: _529  and  _531
REMARK  212  A    between atoms: _531  and  _532
REMARK  213  A    between atoms: _535  and  _537
REMARK  214  A    between atoms: _537  and  _538
REMARK  215  A    between atoms: _537  and  _540
REMARK  216  A    between atoms: _540  and  _541
REMARK  217  A    between atoms: _546  and  _547
REMARK  218  A    between atoms: _549  and  _551
REMARK  219  A    between atoms: _551  and  _552
REMARK  220  A    between atoms: _551  and  _554
REMARK  221  A    between atoms: _554  and  _555
REMARK  222  A    between atoms: _557  and  _559
REMARK  223  A    between atoms: _559  and  _560
REMARK  224  A    between atoms: _559  and  _562
REMARK  225  A    between atoms: _562  and  _563
REMARK  226  A    between atoms: _565  and  _567
REMARK  227  A    between atoms: _567  and  _568
REMARK  228  A    between atoms: _567  and  _570
REMARK  229  A    between atoms: _574  and  _575
REMARK  230  A    between atoms: _580  and  _582
REMARK  231  A    between atoms: _582  and  _583
REMARK  232  A    between atoms: _582  and  _585
REMARK  233  A    between atoms: _585  and  _586
REMARK  234  A    between atoms: _591  and  _592
REMARK  235  A    between atoms: _594  and  _596
REMARK  236  A    between atoms: _596  and  _597
REMARK  237  A    between atoms: _596  and  _599
REMARK  238  A    between atoms: _599  and  _600
REMARK  239  A    between atoms: _600  and  _601
REMARK  240  A    between atoms: _601  and  _602
REMARK  241  A    between atoms: _611  and  _613
REMARK  242  A    between atoms: _613  and  _614
REMARK  243  A    between atoms: _613  and  _616
REMARK  244  A    between atoms: _616  and  _617
REMARK  245  A    between atoms: _617  and  _618
REMARK  246  A    between atoms: _620  and  _622
REMARK  247  A    between atoms: _622  and  _623
REMARK  248  A    between atoms: _622  and  _625
REMARK  249  A    between atoms: _628  and  _630
REMARK  250  A    between atoms: _630  and  _631
REMARK  251  A    between atoms: _630  and  _633
REMARK  252  A    between atoms: _633  and  _634
REMARK                            x       y       z     vdW  Elec       q    Type
REMARK                         _______ _______ _______ _____ _____    ______ ____
ROOT
ATOM      1  O   HOH     1      26.580  89.389   4.511  0.00  0.00    +0.000 OA
ENDROOT
TORSDOF 0
REMARK  Name = ../refined-set-2016/3fh7/3fh7_pocket.pdb
REMARK  252 active torsions:
REMARK  status: ('A' for Active; 'I' for Inactive)
REMARK    1  A    between atoms: _1  and  _3
REMARK    2  A    between atoms: _3  and  _4
REMARK    3  A    between atoms: _3  and  _6
REMARK    4  A    between atoms: _8  and  _10
REMARK    5  A    between atoms: _10  and  _11
REMARK    6  A    between atoms: _10  and  _13
REMARK    7  A    between atoms: _13  and  _14
REMARK    8  A    between atoms: _16  and  _18
REMARK    9  A    between atoms: _18  and  _19
REMARK   10  A    between atoms: _18  and  _21
REMARK   11  A    between atoms: _21  and  _22
REMARK   12  A    between atoms: _22  and  _23
REMARK   13  A    between atoms: _28  and  _30
REMARK   14  A    between atoms: _30  and  _31
REMARK   15  A    between atoms: _30  and  _33
REMARK   16  A    between atoms: _35  and  _37
REMARK   17  A    between atoms: _37  and  _38
REMARK   18  A    between atoms: _37  and  _40
REMARK   19  A    between atoms: _40  and  _41
REMARK   20  A    between atoms: _41  and  _42
REMARK   21  A    between atoms: _47  and  _49
REMARK   22  A    between atoms: _49  and  _50
REMARK   23  A    between atoms: _53  and  _55
REMARK   24  A    between atoms: _55  and  _56
REMARK   25  A    between atoms: _55  and  _58
REMARK   26  A    between atoms: _58  and  _59
REMARK   27  A    between atoms: _62  and  _64
REMARK   28  A    between atoms: _64  and  _65
REMARK   29  A    between atoms: _64  and  _67
REMARK   30  A    between atoms: _67  and  _68
REMARK   31  A    between atoms: _73  and  _75
REMARK   32  A    between atoms: _75  and  _76
REMARK   33  A    between atoms: _75  and  _78
REMARK   34  A    between atoms: _78  and  _79
REMARK   35  A    between atoms: _84  and  _85
REMARK   36  A    between atoms: _87  and  _89
REMARK   37  A    between atoms: _89  and  _90
REMARK   38  A    between atoms: _89  and  _92
REMARK   39  A    between atoms: _92  and  _93
REMARK   40  A    between atoms: _100  and  _101
REMARK   41  A    between atoms: _106  and  _108
REMARK   42  A    between atoms: _108  and  _109
REMARK   43  A    between atoms: _108  and  _111
REMARK   44  A    between atoms: _111  and  _112
REMARK   45  A    between atoms: _117  and  _118
REMARK   46  A    between atoms: _120  and  _122
REMARK   47  A    between atoms: _122  and  _123
REMARK   48  A    between atoms: _125  and  _127
REMARK   49  A    between atoms: _127  and  _128
REMARK   50  A    between atoms: _130  and  _132
REMARK   51  A    between atoms: _132  and  _133
REMARK   52  A    between atoms: _132  and  _135
REMARK   53  A    between atoms: _135  and  _136
REMARK   54  A    between atoms: _136  and  _137
REMARK   55  A    between atoms: _139  and  _141
REMARK   56  A    between atoms: _141  and  _142
REMARK   57  A    between atoms: _141  and  _144
REMARK   58  A    between atoms: _144  and  _145
REMARK   59  A    between atoms: _145  and  _146
REMARK   60  A    between atoms: _149  and  _151
REMARK   61  A    between atoms: _151  and  _152
REMARK   62  A    between atoms: _151  and  _154
REMARK   63  A    between atoms: _154  and  _155
REMARK   64  A    between atoms: _160  and  _162
REMARK   65  A    between atoms: _162  and  _163
REMARK   66  A    between atoms: _162  and  _165
REMARK   67  A    between atoms: _165  and  _166
REMARK   68  A    between atoms: _169  and  _171
REMARK   69  A    between atoms: _171  and  _172
REMARK   70  A    between atoms: _171  and  _174
REMARK   71  A    between atoms: _174  and  _175
REMARK   72  A    between atoms: _181  and  _183
REMARK   73  A    between atoms: _183  and  _184
REMARK   74  A    between atoms: _183  and  _186
REMARK   75  A    between atoms: _189  and  _191
REMARK   76  A    between atoms: _191  and  _192
REMARK   77  A    between atoms: _191  and  _194
REMARK   78  A    between atoms: _194  and  _195
REMARK   79  A    between atoms: _199  and  ZN_637
REMARK   80  A    between atoms: _200  and  _202
REMARK   81  A    between atoms: _202  and  _203
REMARK   82  A    between atoms: _202  and  _205
REMARK   83  A    between atoms: _205  and  _206
REMARK   84  A    between atoms: _206  and  _207
REMARK   85  A    between atoms: _210  and  _212
REMARK   86  A    between atoms: _212  and  _213
REMARK   87  A    between atoms: _212  and  _215
REMARK   88  A    between atoms: _215  and  _216
REMARK   89  A    between atoms: _219  and  _221
REMARK   90  A    between atoms: _221  and  _222
REMARK   91  A    between atoms: _221  and  _224
REMARK   92  A    between atoms: _224  and  _225
REMARK   93  A    between atoms: _229  and  ZN_637
REMARK   94  A    between atoms: _230  and  _232
REMARK   95  A    between atoms: _232  and  _233
REMARK   96  A    between atoms: _232  and  _235
REMARK   97  A    between atoms: _235  and  _236
REMARK   98  A    between atoms: _239  and  _241
REMARK   99  A    between atoms: _241  and  _242
REMARK  100  A    between atoms: _241  and  _244
REMARK  101  A    between atoms: _244  and  _245
REMARK  102  A    between atoms: _250  and  _252
REMARK  103  A    between atoms: _252  and  _253
REMARK  104  A    between atoms: _252  and  _255
REMARK  105  A    between atoms: _255  and  _256
REMARK  106  A    between atoms: _261  and  _263
REMARK  107  A    between atoms: _263  and  _264
REMARK  108  A    between atoms: _263  and  _266
REMARK  109  A    between atoms: _266  and  _267
REMARK  110  A    between atoms: _270  and  _272
REMARK  111  A    between atoms: _272  and  _273
REMARK  112  A    between atoms: _272  and  _275
REMARK  113  A    between atoms: _275  and  _276
REMARK  114  A    between atoms: _286  and  _288
REMARK  115  A    between atoms: _288  and  _289
REMARK  116  A    between atoms: _288  and  _291
REMARK  117  A    between atoms: _291  and  _292
REMARK  118  A    between atoms: _295  and  _297
REMARK  119  A    between atoms: _297  and  _298
REMARK  120  A    between atoms: _297  and  _300
REMARK  121  A    between atoms: _300  and  _301
REMARK  122  A    between atoms: _306  and  _308
REMARK  123  A    between atoms: _308  and  _309
REMARK  124  A    between atoms: _308  and  _311
REMARK  125  A    between atoms: _311  and  _312
REMARK  126  A    between atoms: _318  and  _320
REMARK  127  A    between atoms: _320  and  _321
REMARK  128  A    between atoms: _320  and  _323
REMARK  129  A    between atoms: _323  and  _324
REMARK  130  A    between atoms: _334  and  _336
REMARK  131  A    between atoms: _336  and  _337
REMARK  132  A    between atoms: _336  and  _339
REMARK  133  A    between atoms: _339  and  _340
REMARK  134  A    between atoms: _343  and  _345
REMARK  135  A    between atoms: _345  and  _346
REMARK  136  A    between atoms: _345  and  _348
REMARK  137  A    between atoms: _348  and  _349
REMARK  138  A    between atoms: _354  and  _356
REMARK  139  A    between atoms: _356  and  _357
REMARK  140  A    between atoms: _356  and  _359
REMARK  141  A    between atoms: _359  and  _360
REMARK  142  A    between atoms: _360  and  _361
REMARK  143  A    between atoms: _361  and  _362
REMARK  144  A    between atoms: _362  and  ZN_637
REMARK  145  A    between atoms: _364  and  _366
REMARK  146  A    between atoms: _366  and  _367
REMARK  147  A    between atoms: _366  and  _369
REMARK  148  A    between atoms: _369  and  _370
REMARK  149  A    between atoms: _373  and  _375
REMARK  150  A    between atoms: _375  and  _376
REMARK  151  A    between atoms: _375  and  _378
REMARK  152  A    between atoms: _381  and  _383
REMARK  153  A    between atoms: _383  and  _384
REMARK  154  A    between atoms: _383  and  _386
REMARK  155  A    between atoms: _386  and  _387
REMARK  156  A    between atoms: _387  and  _388
REMARK  157  A    between atoms: _391  and  _393
REMARK  158  A    between atoms: _393  and  _394
REMARK  159  A    between atoms: _393  and  _396
REMARK  160  A    between atoms: _396  and  _397
REMARK  161  A    between atoms: _404  and  _405
REMARK  162  A    between atoms: _410  and  _412
REMARK  163  A    between atoms: _412  and  _413
REMARK  164  A    between atoms: _412  and  _415
REMARK  165  A    between atoms: _415  and  _416
REMARK  166  A    between atoms: _422  and  _424
REMARK  167  A    between atoms: _424  and  _425
REMARK  168  A    between atoms: _424  and  _427
REMARK  169  A    between atoms: _427  and  _428
REMARK  170  A    between atoms: _431  and  _433
REMARK  171  A    between atoms: _433  and  _434
REMARK  172  A    between atoms: _433  and  _436
REMARK  173  A    between atoms: _436  and  _437
REMARK  174  A    between atoms: _437  and  _438
REMARK  175  A    between atoms: _438  and  _439
REMARK  176  A    between atoms: _439  and  _440
REMARK  177  A    between atoms: _444  and  _446
REMARK  178  A    between atoms: _446  and  _447
REMARK  179  A    between atoms: _446  and  _449
REMARK  180  A    between atoms: _449  and  _450
REMARK  181  A    between atoms: _453  and  _455
REMARK  182  A    between atoms: _455  and  _456
REMARK  183  A    between atoms: _455  and  _458
REMARK  184  A    between atoms: _461  and  _463
REMARK  185  A    between atoms: _463  and  _464
REMARK  186  A    between atoms: _463  and  _466
REMARK  187  A    between atoms: _469  and  _471
REMARK  188  A    between atoms: _471  and  _472
REMARK  189  A    between atoms: _471  and  _474
REMARK  190  A    between atoms: _474  and  _475
REMARK  191  A    between atoms: _478  and  _480
REMARK  192  A    between atoms: _480  and  _481
REMARK  193  A    between atoms: _480  and  _483
REMARK  194  A    between atoms: _483  and  _484
REMARK  195  A    between atoms: _487  and  _489
REMARK  196  A    between atoms: _489  and  _490
REMARK  197  A    between atoms: _489  and  _492
REMARK  198  A    between atoms: _492  and  _493
REMARK  199  A    between atoms: _496  and  _498
REMARK  200  A    between atoms: _498  and  _499
REMARK  201  A    between atoms: _498  and  _501
REMARK  202  A    between atoms: _501  and  _502
REMARK  203  A    between atoms: _506  and  _507
REMARK  204  A    between atoms: _512  and  _514
REMARK  205  A    between atoms: _514  and  _515
REMARK  206  A    between atoms: _514  and  _517
REMARK  207  A    between atoms: _517  and  _518
REMARK  208  A    between atoms: _521  and  _523
REMARK  209  A    between atoms: _523  and  _524
REMARK  210  A    between atoms: _523  and  _526
REMARK  211  A    between atoms: _529  and  _531
REMARK  212  A    between atoms: _531  and  _532
REMARK  213  A    between atoms: _535  and  _537
REMARK  214  A    between atoms: _537  and  _538
REMARK  215  A    between atoms: _537  and  _540
REMARK  216  A    between atoms: _540  and  _541
REMARK  217  A    between atoms: _546  and  _547
REMARK  218  A    between atoms: _549  and  _551
REMARK  219  A    between atoms: _551  and  _552
REMARK  220  A    between atoms: _551  and  _554
REMARK  221  A    between atoms: _554  and  _555
REMARK  222  A    between atoms: _557  and  _559
REMARK  223  A    between atoms: _559  and  _560
REMARK  224  A    between atoms: _559  and  _562
REMARK  225  A    between atoms: _562  and  _563
REMARK  226  A    between atoms: _565  and  _567
REMARK  227  A    between atoms: _567  and  _568
REMARK  228  A    between atoms: _567  and  _570
REMARK  229  A    between atoms: _574  and  _575
REMARK  230  A    between atoms: _580  and  _582
REMARK  231  A    between atoms: _582  and  _583
REMARK  232  A    between atoms: _582  and  _585
REMARK  233  A    between atoms: _585  and  _586
REMARK  234  A    between atoms: _591  and  _592
REMARK  235  A    between atoms: _594  and  _596
REMARK  236  A    between atoms: _596  and  _597
REMARK  237  A    between atoms: _596  and  _599
REMARK  238  A    between atoms: _599  and  _600
REMARK  239  A    between atoms: _600  and  _601
REMARK  240  A    between atoms: _601  and  _602
REMARK  241  A    between atoms: _611  and  _613
REMARK  242  A    between atoms: _613  and  _614
REMARK  243  A    between atoms: _613  and  _616
REMARK  244  A    between atoms: _616  and  _617
REMARK  245  A    between atoms: _617  and  _618
REMARK  246  A    between atoms: _620  and  _622
REMARK  247  A    between atoms: _622  and  _623
REMARK  248  A    between atoms: _622  and  _625
REMARK  249  A    between atoms: _628  and  _630
REMARK  250  A    between atoms: _630  and  _631
REMARK  251  A    between atoms: _630  and  _633
REMARK  252  A    between atoms: _633  and  _634
REMARK                            x       y       z     vdW  Elec       q    Type
REMARK                         _______ _______ _______ _____ _____    ______ ____
ROOT
ATOM      1  O   HOH     1      24.215  89.787   6.401  0.00  0.00    +0.000 OA
ENDROOT
TORSDOF 0
REMARK  Name = ../refined-set-2016/3fh7/3fh7_pocket.pdb
REMARK  252 active torsions:
REMARK  status: ('A' for Active; 'I' for Inactive)
REMARK    1  A    between atoms: _1  and  _3
REMARK    2  A    between atoms: _3  and  _4
REMARK    3  A    between atoms: _3  and  _6
REMARK    4  A    between atoms: _8  and  _10
REMARK    5  A    between atoms: _10  and  _11
REMARK    6  A    between atoms: _10  and  _13
REMARK    7  A    between atoms: _13  and  _14
REMARK    8  A    between atoms: _16  and  _18
REMARK    9  A    between atoms: _18  and  _19
REMARK   10  A    between atoms: _18  and  _21
REMARK   11  A    between atoms: _21  and  _22
REMARK   12  A    between atoms: _22  and  _23
REMARK   13  A    between atoms: _28  and  _30
REMARK   14  A    between atoms: _30  and  _31
REMARK   15  A    between atoms: _30  and  _33
REMARK   16  A    between atoms: _35  and  _37
REMARK   17  A    between atoms: _37  and  _38
REMARK   18  A    between atoms: _37  and  _40
REMARK   19  A    between atoms: _40  and  _41
REMARK   20  A    between atoms: _41  and  _42
REMARK   21  A    between atoms: _47  and  _49
REMARK   22  A    between atoms: _49  and  _50
REMARK   23  A    between atoms: _53  and  _55
REMARK   24  A    between atoms: _55  and  _56
REMARK   25  A    between atoms: _55  and  _58
REMARK   26  A    between atoms: _58  and  _59
REMARK   27  A    between atoms: _62  and  _64
REMARK   28  A    between atoms: _64  and  _65
REMARK   29  A    between atoms: _64  and  _67
REMARK   30  A    between atoms: _67  and  _68
REMARK   31  A    between atoms: _73  and  _75
REMARK   32  A    between atoms: _75  and  _76
REMARK   33  A    between atoms: _75  and  _78
REMARK   34  A    between atoms: _78  and  _79
REMARK   35  A    between atoms: _84  and  _85
REMARK   36  A    between atoms: _87  and  _89
REMARK   37  A    between atoms: _89  and  _90
REMARK   38  A    between atoms: _89  and  _92
REMARK   39  A    between atoms: _92  and  _93
REMARK   40  A    between atoms: _100  and  _101
REMARK   41  A    between atoms: _106  and  _108
REMARK   42  A    between atoms: _108  and  _109
REMARK   43  A    between atoms: _108  and  _111
REMARK   44  A    between atoms: _111  and  _112
REMARK   45  A    between atoms: _117  and  _118
REMARK   46  A    between atoms: _120  and  _122
REMARK   47  A    between atoms: _122  and  _123
REMARK   48  A    between atoms: _125  and  _127
REMARK   49  A    between atoms: _127  and  _128
REMARK   50  A    between atoms: _130  and  _132
REMARK   51  A    between atoms: _132  and  _133
REMARK   52  A    between atoms: _132  and  _135
REMARK   53  A    between atoms: _135  and  _136
REMARK   54  A    between atoms: _136  and  _137
REMARK   55  A    between atoms: _139  and  _141
REMARK   56  A    between atoms: _141  and  _142
REMARK   57  A    between atoms: _141  and  _144
REMARK   58  A    between atoms: _144  and  _145
REMARK   59  A    between atoms: _145  and  _146
REMARK   60  A    between atoms: _149  and  _151
REMARK   61  A    between atoms: _151  and  _152
REMARK   62  A    between atoms: _151  and  _154
REMARK   63  A    between atoms: _154  and  _155
REMARK   64  A    between atoms: _160  and  _162
REMARK   65  A    between atoms: _162  and  _163
REMARK   66  A    between atoms: _162  and  _165
REMARK   67  A    between atoms: _165  and  _166
REMARK   68  A    between atoms: _169  and  _171
REMARK   69  A    between atoms: _171  and  _172
REMARK   70  A    between atoms: _171  and  _174
REMARK   71  A    between atoms: _174  and  _175
REMARK   72  A    between atoms: _181  and  _183
REMARK   73  A    between atoms: _183  and  _184
REMARK   74  A    between atoms: _183  and  _186
REMARK   75  A    between atoms: _189  and  _191
REMARK   76  A    between atoms: _191  and  _192
REMARK   77  A    between atoms: _191  and  _194
REMARK   78  A    between atoms: _194  and  _195
REMARK   79  A    between atoms: _199  and  ZN_637
REMARK   80  A    between atoms: _200  and  _202
REMARK   81  A    between atoms: _202  and  _203
REMARK   82  A    between atoms: _202  and  _205
REMARK   83  A    between atoms: _205  and  _206
REMARK   84  A    between atoms: _206  and  _207
REMARK   85  A    between atoms: _210  and  _212
REMARK   86  A    between atoms: _212  and  _213
REMARK   87  A    between atoms: _212  and  _215
REMARK   88  A    between atoms: _215  and  _216
REMARK   89  A    between atoms: _219  and  _221
REMARK   90  A    between atoms: _221  and  _222
REMARK   91  A    between atoms: _221  and  _224
REMARK   92  A    between atoms: _224  and  _225
REMARK   93  A    between atoms: _229  and  ZN_637
REMARK   94  A    between atoms: _230  and  _232
REMARK   95  A    between atoms: _232  and  _233
REMARK   96  A    between atoms: _232  and  _235
REMARK   97  A    between atoms: _235  and  _236
REMARK   98  A    between atoms: _239  and  _241
REMARK   99  A    between atoms: _241  and  _242
REMARK  100  A    between atoms: _241  and  _244
REMARK  101  A    between atoms: _244  and  _245
REMARK  102  A    between atoms: _250  and  _252
REMARK  103  A    between atoms: _252  and  _253
REMARK  104  A    between atoms: _252  and  _255
REMARK  105  A    between atoms: _255  and  _256
REMARK  106  A    between atoms: _261  and  _263
REMARK  107  A    between atoms: _263  and  _264
REMARK  108  A    between atoms: _263  and  _266
REMARK  109  A    between atoms: _266  and  _267
REMARK  110  A    between atoms: _270  and  _272
REMARK  111  A    between atoms: _272  and  _273
REMARK  112  A    between atoms: _272  and  _275
REMARK  113  A    between atoms: _275  and  _276
REMARK  114  A    between atoms: _286  and  _288
REMARK  115  A    between atoms: _288  and  _289
REMARK  116  A    between atoms: _288  and  _291
REMARK  117  A    between atoms: _291  and  _292
REMARK  118  A    between atoms: _295  and  _297
REMARK  119  A    between atoms: _297  and  _298
REMARK  120  A    between atoms: _297  and  _300
REMARK  121  A    between atoms: _300  and  _301
REMARK  122  A    between atoms: _306  and  _308
REMARK  123  A    between atoms: _308  and  _309
REMARK  124  A    between atoms: _308  and  _311
REMARK  125  A    between atoms: _311  and  _312
REMARK  126  A    between atoms: _318  and  _320
REMARK  127  A    between atoms: _320  and  _321
REMARK  128  A    between atoms: _320  and  _323
REMARK  129  A    between atoms: _323  and  _324
REMARK  130  A    between atoms: _334  and  _336
REMARK  131  A    between atoms: _336  and  _337
REMARK  132  A    between atoms: _336  and  _339
REMARK  133  A    between atoms: _339  and  _340
REMARK  134  A    between atoms: _343  and  _345
REMARK  135  A    between atoms: _345  and  _346
REMARK  136  A    between atoms: _345  and  _348
REMARK  137  A    between atoms: _348  and  _349
REMARK  138  A    between atoms: _354  and  _356
REMARK  139  A    between atoms: _356  and  _357
REMARK  140  A    between atoms: _356  and  _359
REMARK  141  A    between atoms: _359  and  _360
REMARK  142  A    between atoms: _360  and  _361
REMARK  143  A    between atoms: _361  and  _362
REMARK  144  A    between atoms: _362  and  ZN_637
REMARK  145  A    between atoms: _364  and  _366
REMARK  146  A    between atoms: _366  and  _367
REMARK  147  A    between atoms: _366  and  _369
REMARK  148  A    between atoms: _369  and  _370
REMARK  149  A    between atoms: _373  and  _375
REMARK  150  A    between atoms: _375  and  _376
REMARK  151  A    between atoms: _375  and  _378
REMARK  152  A    between atoms: _381  and  _383
REMARK  153  A    between atoms: _383  and  _384
REMARK  154  A    between atoms: _383  and  _386
REMARK  155  A    between atoms: _386  and  _387
REMARK  156  A    between atoms: _387  and  _388
REMARK  157  A    between atoms: _391  and  _393
REMARK  158  A    between atoms: _393  and  _394
REMARK  159  A    between atoms: _393  and  _396
REMARK  160  A    between atoms: _396  and  _397
REMARK  161  A    between atoms: _404  and  _405
REMARK  162  A    between atoms: _410  and  _412
REMARK  163  A    between atoms: _412  and  _413
REMARK  164  A    between atoms: _412  and  _415
REMARK  165  A    between atoms: _415  and  _416
REMARK  166  A    between atoms: _422  and  _424
REMARK  167  A    between atoms: _424  and  _425
REMARK  168  A    between atoms: _424  and  _427
REMARK  169  A    between atoms: _427  and  _428
REMARK  170  A    between atoms: _431  and  _433
REMARK  171  A    between atoms: _433  and  _434
REMARK  172  A    between atoms: _433  and  _436
REMARK  173  A    between atoms: _436  and  _437
REMARK  174  A    between atoms: _437  and  _438
REMARK  175  A    between atoms: _438  and  _439
REMARK  176  A    between atoms: _439  and  _440
REMARK  177  A    between atoms: _444  and  _446
REMARK  178  A    between atoms: _446  and  _447
REMARK  179  A    between atoms: _446  and  _449
REMARK  180  A    between atoms: _449  and  _450
REMARK  181  A    between atoms: _453  and  _455
REMARK  182  A    between atoms: _455  and  _456
REMARK  183  A    between atoms: _455  and  _458
REMARK  184  A    between atoms: _461  and  _463
REMARK  185  A    between atoms: _463  and  _464
REMARK  186  A    between atoms: _463  and  _466
REMARK  187  A    between atoms: _469  and  _471
REMARK  188  A    between atoms: _471  and  _472
REMARK  189  A    between atoms: _471  and  _474
REMARK  190  A    between atoms: _474  and  _475
REMARK  191  A    between atoms: _478  and  _480
REMARK  192  A    between atoms: _480  and  _481
REMARK  193  A    between atoms: _480  and  _483
REMARK  194  A    between atoms: _483  and  _484
REMARK  195  A    between atoms: _487  and  _489
REMARK  196  A    between atoms: _489  and  _490
REMARK  197  A    between atoms: _489  and  _492
REMARK  198  A    between atoms: _492  and  _493
REMARK  199  A    between atoms: _496  and  _498
REMARK  200  A    between atoms: _498  and  _499
REMARK  201  A    between atoms: _498  and  _501
REMARK  202  A    between atoms: _501  and  _502
REMARK  203  A    between atoms: _506  and  _507
REMARK  204  A    between atoms: _512  and  _514
REMARK  205  A    between atoms: _514  and  _515
REMARK  206  A    between atoms: _514  and  _517
REMARK  207  A    between atoms: _517  and  _518
REMARK  208  A    between atoms: _521  and  _523
REMARK  209  A    between atoms: _523  and  _524
REMARK  210  A    between atoms: _523  and  _526
REMARK  211  A    between atoms: _529  and  _531
REMARK  212  A    between atoms: _531  and  _532
REMARK  213  A    between atoms: _535  and  _537
REMARK  214  A    between atoms: _537  and  _538
REMARK  215  A    between atoms: _537  and  _540
REMARK  216  A    between atoms: _540  and  _541
REMARK  217  A    between atoms: _546  and  _547
REMARK  218  A    between atoms: _549  and  _551
REMARK  219  A    between atoms: _551  and  _552
REMARK  220  A    between atoms: _551  and  _554
REMARK  221  A    between atoms: _554  and  _555
REMARK  222  A    between atoms: _557  and  _559
REMARK  223  A    between atoms: _559  and  _560
REMARK  224  A    between atoms: _559  and  _562
REMARK  225  A    between atoms: _562  and  _563
REMARK  226  A    between atoms: _565  and  _567
REMARK  227  A    between atoms: _567  and  _568
REMARK  228  A    between atoms: _567  and  _570
REMARK  229  A    between atoms: _574  and  _575
REMARK  230  A    between atoms: _580  and  _582
REMARK  231  A    between atoms: _582  and  _583
REMARK  232  A    between atoms: _582  and  _585
REMARK  233  A    between atoms: _585  and  _586
REMARK  234  A    between atoms: _591  and  _592
REMARK  235  A    between atoms: _594  and  _596
REMARK  236  A    between atoms: _596  and  _597
REMARK  237  A    between atoms: _596  and  _599
REMARK  238  A    between atoms: _599  and  _600
REMARK  239  A    between atoms: _600  and  _601
REMARK  240  A    between atoms: _601  and  _602
REMARK  241  A    between atoms: _611  and  _613
REMARK  242  A    between atoms: _613  and  _614
REMARK  243  A    between atoms: _613  and  _616
REMARK  244  A    between atoms: _616  and  _617
REMARK  245  A    between atoms: _617  and  _618
REMARK  246  A    between atoms: _620  and  _622
REMARK  247  A    between atoms: _622  and  _623
REMARK  248  A    between atoms: _622  and  _625
REMARK  249  A    between atoms: _628  and  _630
REMARK  250  A    between atoms: _630  and  _631
REMARK  251  A    between atoms: _630  and  _633
REMARK  252  A    between atoms: _633  and  _634
REMARK                            x       y       z     vdW  Elec       q    Type
REMARK                         _______ _______ _______ _____ _____    ______ ____
ROOT
ATOM      1  O   HOH     1      22.796  94.191  -2.799  0.00  0.00    +0.000 OA
ENDROOT
TORSDOF 0
REMARK  Name = ../refined-set-2016/3fh7/3fh7_pocket.pdb
REMARK  252 active torsions:
REMARK  status: ('A' for Active; 'I' for Inactive)
REMARK    1  A    between atoms: _1  and  _3
REMARK    2  A    between atoms: _3  and  _4
REMARK    3  A    between atoms: _3  and  _6
REMARK    4  A    between atoms: _8  and  _10
REMARK    5  A    between atoms: _10  and  _11
REMARK    6  A    between atoms: _10  and  _13
REMARK    7  A    between atoms: _13  and  _14
REMARK    8  A    between atoms: _16  and  _18
REMARK    9  A    between atoms: _18  and  _19
REMARK   10  A    between atoms: _18  and  _21
REMARK   11  A    between atoms: _21  and  _22
REMARK   12  A    between atoms: _22  and  _23
REMARK   13  A    between atoms: _28  and  _30
REMARK   14  A    between atoms: _30  and  _31
REMARK   15  A    between atoms: _30  and  _33
REMARK   16  A    between atoms: _35  and  _37
REMARK   17  A    between atoms: _37  and  _38
REMARK   18  A    between atoms: _37  and  _40
REMARK   19  A    between atoms: _40  and  _41
REMARK   20  A    between atoms: _41  and  _42
REMARK   21  A    between atoms: _47  and  _49
REMARK   22  A    between atoms: _49  and  _50
REMARK   23  A    between atoms: _53  and  _55
REMARK   24  A    between atoms: _55  and  _56
REMARK   25  A    between atoms: _55  and  _58
REMARK   26  A    between atoms: _58  and  _59
REMARK   27  A    between atoms: _62  and  _64
REMARK   28  A    between atoms: _64  and  _65
REMARK   29  A    between atoms: _64  and  _67
REMARK   30  A    between atoms: _67  and  _68
REMARK   31  A    between atoms: _73  and  _75
REMARK   32  A    between atoms: _75  and  _76
REMARK   33  A    between atoms: _75  and  _78
REMARK   34  A    between atoms: _78  and  _79
REMARK   35  A    between atoms: _84  and  _85
REMARK   36  A    between atoms: _87  and  _89
REMARK   37  A    between atoms: _89  and  _90
REMARK   38  A    between atoms: _89  and  _92
REMARK   39  A    between atoms: _92  and  _93
REMARK   40  A    between atoms: _100  and  _101
REMARK   41  A    between atoms: _106  and  _108
REMARK   42  A    between atoms: _108  and  _109
REMARK   43  A    between atoms: _108  and  _111
REMARK   44  A    between atoms: _111  and  _112
REMARK   45  A    between atoms: _117  and  _118
REMARK   46  A    between atoms: _120  and  _122
REMARK   47  A    between atoms: _122  and  _123
REMARK   48  A    between atoms: _125  and  _127
REMARK   49  A    between atoms: _127  and  _128
REMARK   50  A    between atoms: _130  and  _132
REMARK   51  A    between atoms: _132  and  _133
REMARK   52  A    between atoms: _132  and  _135
REMARK   53  A    between atoms: _135  and  _136
REMARK   54  A    between atoms: _136  and  _137
REMARK   55  A    between atoms: _139  and  _141
REMARK   56  A    between atoms: _141  and  _142
REMARK   57  A    between atoms: _141  and  _144
REMARK   58  A    between atoms: _144  and  _145
REMARK   59  A    between atoms: _145  and  _146
REMARK   60  A    between atoms: _149  and  _151
REMARK   61  A    between atoms: _151  and  _152
REMARK   62  A    between atoms: _151  and  _154
REMARK   63  A    between atoms: _154  and  _155
REMARK   64  A    between atoms: _160  and  _162
REMARK   65  A    between atoms: _162  and  _163
REMARK   66  A    between atoms: _162  and  _165
REMARK   67  A    between atoms: _165  and  _166
REMARK   68  A    between atoms: _169  and  _171
REMARK   69  A    between atoms: _171  and  _172
REMARK   70  A    between atoms: _171  and  _174
REMARK   71  A    between atoms: _174  and  _175
REMARK   72  A    between atoms: _181  and  _183
REMARK   73  A    between atoms: _183  and  _184
REMARK   74  A    between atoms: _183  and  _186
REMARK   75  A    between atoms: _189  and  _191
REMARK   76  A    between atoms: _191  and  _192
REMARK   77  A    between atoms: _191  and  _194
REMARK   78  A    between atoms: _194  and  _195
REMARK   79  A    between atoms: _199  and  ZN_637
REMARK   80  A    between atoms: _200  and  _202
REMARK   81  A    between atoms: _202  and  _203
REMARK   82  A    between atoms: _202  and  _205
REMARK   83  A    between atoms: _205  and  _206
REMARK   84  A    between atoms: _206  and  _207
REMARK   85  A    between atoms: _210  and  _212
REMARK   86  A    between atoms: _212  and  _213
REMARK   87  A    between atoms: _212  and  _215
REMARK   88  A    between atoms: _215  and  _216
REMARK   89  A    between atoms: _219  and  _221
REMARK   90  A    between atoms: _221  and  _222
REMARK   91  A    between atoms: _221  and  _224
REMARK   92  A    between atoms: _224  and  _225
REMARK   93  A    between atoms: _229  and  ZN_637
REMARK   94  A    between atoms: _230  and  _232
REMARK   95  A    between atoms: _232  and  _233
REMARK   96  A    between atoms: _232  and  _235
REMARK   97  A    between atoms: _235  and  _236
REMARK   98  A    between atoms: _239  and  _241
REMARK   99  A    between atoms: _241  and  _242
REMARK  100  A    between atoms: _241  and  _244
REMARK  101  A    between atoms: _244  and  _245
REMARK  102  A    between atoms: _250  and  _252
REMARK  103  A    between atoms: _252  and  _253
REMARK  104  A    between atoms: _252  and  _255
REMARK  105  A    between atoms: _255  and  _256
REMARK  106  A    between atoms: _261  and  _263
REMARK  107  A    between atoms: _263  and  _264
REMARK  108  A    between atoms: _263  and  _266
REMARK  109  A    between atoms: _266  and  _267
REMARK  110  A    between atoms: _270  and  _272
REMARK  111  A    between atoms: _272  and  _273
REMARK  112  A    between atoms: _272  and  _275
REMARK  113  A    between atoms: _275  and  _276
REMARK  114  A    between atoms: _286  and  _288
REMARK  115  A    between atoms: _288  and  _289
REMARK  116  A    between atoms: _288  and  _291
REMARK  117  A    between atoms: _291  and  _292
REMARK  118  A    between atoms: _295  and  _297
REMARK  119  A    between atoms: _297  and  _298
REMARK  120  A    between atoms: _297  and  _300
REMARK  121  A    between atoms: _300  and  _301
REMARK  122  A    between atoms: _306  and  _308
REMARK  123  A    between atoms: _308  and  _309
REMARK  124  A    between atoms: _308  and  _311
REMARK  125  A    between atoms: _311  and  _312
REMARK  126  A    between atoms: _318  and  _320
REMARK  127  A    between atoms: _320  and  _321
REMARK  128  A    between atoms: _320  and  _323
REMARK  129  A    between atoms: _323  and  _324
REMARK  130  A    between atoms: _334  and  _336
REMARK  131  A    between atoms: _336  and  _337
REMARK  132  A    between atoms: _336  and  _339
REMARK  133  A    between atoms: _339  and  _340
REMARK  134  A    between atoms: _343  and  _345
REMARK  135  A    between atoms: _345  and  _346
REMARK  136  A    between atoms: _345  and  _348
REMARK  137  A    between atoms: _348  and  _349
REMARK  138  A    between atoms: _354  and  _356
REMARK  139  A    between atoms: _356  and  _357
REMARK  140  A    between atoms: _356  and  _359
REMARK  141  A    between atoms: _359  and  _360
REMARK  142  A    between atoms: _360  and  _361
REMARK  143  A    between atoms: _361  and  _362
REMARK  144  A    between atoms: _362  and  ZN_637
REMARK  145  A    between atoms: _364  and  _366
REMARK  146  A    between atoms: _366  and  _367
REMARK  147  A    between atoms: _366  and  _369
REMARK  148  A    between atoms: _369  and  _370
REMARK  149  A    between atoms: _373  and  _375
REMARK  150  A    between atoms: _375  and  _376
REMARK  151  A    between atoms: _375  and  _378
REMARK  152  A    between atoms: _381  and  _383
REMARK  153  A    between atoms: _383  and  _384
REMARK  154  A    between atoms: _383  and  _386
REMARK  155  A    between atoms: _386  and  _387
REMARK  156  A    between atoms: _387  and  _388
REMARK  157  A    between atoms: _391  and  _393
REMARK  158  A    between atoms: _393  and  _394
REMARK  159  A    between atoms: _393  and  _396
REMARK  160  A    between atoms: _396  and  _397
REMARK  161  A    between atoms: _404  and  _405
REMARK  162  A    between atoms: _410  and  _412
REMARK  163  A    between atoms: _412  and  _413
REMARK  164  A    between atoms: _412  and  _415
REMARK  165  A    between atoms: _415  and  _416
REMARK  166  A    between atoms: _422  and  _424
REMARK  167  A    between atoms: _424  and  _425
REMARK  168  A    between atoms: _424  and  _427
REMARK  169  A    between atoms: _427  and  _428
REMARK  170  A    between atoms: _431  and  _433
REMARK  171  A    between atoms: _433  and  _434
REMARK  172  A    between atoms: _433  and  _436
REMARK  173  A    between atoms: _436  and  _437
REMARK  174  A    between atoms: _437  and  _438
REMARK  175  A    between atoms: _438  and  _439
REMARK  176  A    between atoms: _439  and  _440
REMARK  177  A    between atoms: _444  and  _446
REMARK  178  A    between atoms: _446  and  _447
REMARK  179  A    between atoms: _446  and  _449
REMARK  180  A    between atoms: _449  and  _450
REMARK  181  A    between atoms: _453  and  _455
REMARK  182  A    between atoms: _455  and  _456
REMARK  183  A    between atoms: _455  and  _458
REMARK  184  A    between atoms: _461  and  _463
REMARK  185  A    between atoms: _463  and  _464
REMARK  186  A    between atoms: _463  and  _466
REMARK  187  A    between atoms: _469  and  _471
REMARK  188  A    between atoms: _471  and  _472
REMARK  189  A    between atoms: _471  and  _474
REMARK  190  A    between atoms: _474  and  _475
REMARK  191  A    between atoms: _478  and  _480
REMARK  192  A    between atoms: _480  and  _481
REMARK  193  A    between atoms: _480  and  _483
REMARK  194  A    between atoms: _483  and  _484
REMARK  195  A    between atoms: _487  and  _489
REMARK  196  A    between atoms: _489  and  _490
REMARK  197  A    between atoms: _489  and  _492
REMARK  198  A    between atoms: _492  and  _493
REMARK  199  A    between atoms: _496  and  _498
REMARK  200  A    between atoms: _498  and  _499
REMARK  201  A    between atoms: _498  and  _501
REMARK  202  A    between atoms: _501  and  _502
REMARK  203  A    between atoms: _506  and  _507
REMARK  204  A    between atoms: _512  and  _514
REMARK  205  A    between atoms: _514  and  _515
REMARK  206  A    between atoms: _514  and  _517
REMARK  207  A    between atoms: _517  and  _518
REMARK  208  A    between atoms: _521  and  _523
REMARK  209  A    between atoms: _523  and  _524
REMARK  210  A    between atoms: _523  and  _526
REMARK  211  A    between atoms: _529  and  _531
REMARK  212  A    between atoms: _531  and  _532
REMARK  213  A    between atoms: _535  and  _537
REMARK  214  A    between atoms: _537  and  _538
REMARK  215  A    between atoms: _537  and  _540
REMARK  216  A    between atoms: _540  and  _541
REMARK  217  A    between atoms: _546  and  _547
REMARK  218  A    between atoms: _549  and  _551
REMARK  219  A    between atoms: _551  and  _552
REMARK  220  A    between atoms: _551  and  _554
REMARK  221  A    between atoms: _554  and  _555
REMARK  222  A    between atoms: _557  and  _559
REMARK  223  A    between atoms: _559  and  _560
REMARK  224  A    between atoms: _559  and  _562
REMARK  225  A    between atoms: _562  and  _563
REMARK  226  A    between atoms: _565  and  _567
REMARK  227  A    between atoms: _567  and  _568
REMARK  228  A    between atoms: _567  and  _570
REMARK  229  A    between atoms: _574  and  _575
REMARK  230  A    between atoms: _580  and  _582
REMARK  231  A    between atoms: _582  and  _583
REMARK  232  A    between atoms: _582  and  _585
REMARK  233  A    between atoms: _585  and  _586
REMARK  234  A    between atoms: _591  and  _592
REMARK  235  A    between atoms: _594  and  _596
REMARK  236  A    between atoms: _596  and  _597
REMARK  237  A    between atoms: _596  and  _599
REMARK  238  A    between atoms: _599  and  _600
REMARK  239  A    between atoms: _600  and  _601
REMARK  240  A    between atoms: _601  and  _602
REMARK  241  A    between atoms: _611  and  _613
REMARK  242  A    between atoms: _613  and  _614
REMARK  243  A    between atoms: _613  and  _616
REMARK  244  A    between atoms: _616  and  _617
REMARK  245  A    between atoms: _617  and  _618
REMARK  246  A    between atoms: _620  and  _622
REMARK  247  A    between atoms: _622  and  _623
REMARK  248  A    between atoms: _622  and  _625
REMARK  249  A    between atoms: _628  and  _630
REMARK  250  A    between atoms: _630  and  _631
REMARK  251  A    between atoms: _630  and  _633
REMARK  252  A    between atoms: _633  and  _634
REMARK                            x       y       z     vdW  Elec       q    Type
REMARK                         _______ _______ _______ _____ _____    ______ ____
ROOT
ATOM      1  O   HOH     1      35.672  90.165  -4.977  0.00  0.00    +0.000 OA
ENDROOT
TORSDOF 0
REMARK  Name = ../refined-set-2016/3fh7/3fh7_pocket.pdb
REMARK  252 active torsions:
REMARK  status: ('A' for Active; 'I' for Inactive)
REMARK    1  A    between atoms: _1  and  _3
REMARK    2  A    between atoms: _3  and  _4
REMARK    3  A    between atoms: _3  and  _6
REMARK    4  A    between atoms: _8  and  _10
REMARK    5  A    between atoms: _10  and  _11
REMARK    6  A    between atoms: _10  and  _13
REMARK    7  A    between atoms: _13  and  _14
REMARK    8  A    between atoms: _16  and  _18
REMARK    9  A    between atoms: _18  and  _19
REMARK   10  A    between atoms: _18  and  _21
REMARK   11  A    between atoms: _21  and  _22
REMARK   12  A    between atoms: _22  and  _23
REMARK   13  A    between atoms: _28  and  _30
REMARK   14  A    between atoms: _30  and  _31
REMARK   15  A    between atoms: _30  and  _33
REMARK   16  A    between atoms: _35  and  _37
REMARK   17  A    between atoms: _37  and  _38
REMARK   18  A    between atoms: _37  and  _40
REMARK   19  A    between atoms: _40  and  _41
REMARK   20  A    between atoms: _41  and  _42
REMARK   21  A    between atoms: _47  and  _49
REMARK   22  A    between atoms: _49  and  _50
REMARK   23  A    between atoms: _53  and  _55
REMARK   24  A    between atoms: _55  and  _56
REMARK   25  A    between atoms: _55  and  _58
REMARK   26  A    between atoms: _58  and  _59
REMARK   27  A    between atoms: _62  and  _64
REMARK   28  A    between atoms: _64  and  _65
REMARK   29  A    between atoms: _64  and  _67
REMARK   30  A    between atoms: _67  and  _68
REMARK   31  A    between atoms: _73  and  _75
REMARK   32  A    between atoms: _75  and  _76
REMARK   33  A    between atoms: _75  and  _78
REMARK   34  A    between atoms: _78  and  _79
REMARK   35  A    between atoms: _84  and  _85
REMARK   36  A    between atoms: _87  and  _89
REMARK   37  A    between atoms: _89  and  _90
REMARK   38  A    between atoms: _89  and  _92
REMARK   39  A    between atoms: _92  and  _93
REMARK   40  A    between atoms: _100  and  _101
REMARK   41  A    between atoms: _106  and  _108
REMARK   42  A    between atoms: _108  and  _109
REMARK   43  A    between atoms: _108  and  _111
REMARK   44  A    between atoms: _111  and  _112
REMARK   45  A    between atoms: _117  and  _118
REMARK   46  A    between atoms: _120  and  _122
REMARK   47  A    between atoms: _122  and  _123
REMARK   48  A    between atoms: _125  and  _127
REMARK   49  A    between atoms: _127  and  _128
REMARK   50  A    between atoms: _130  and  _132
REMARK   51  A    between atoms: _132  and  _133
REMARK   52  A    between atoms: _132  and  _135
REMARK   53  A    between atoms: _135  and  _136
REMARK   54  A    between atoms: _136  and  _137
REMARK   55  A    between atoms: _139  and  _141
REMARK   56  A    between atoms: _141  and  _142
REMARK   57  A    between atoms: _141  and  _144
REMARK   58  A    between atoms: _144  and  _145
REMARK   59  A    between atoms: _145  and  _146
REMARK   60  A    between atoms: _149  and  _151
REMARK   61  A    between atoms: _151  and  _152
REMARK   62  A    between atoms: _151  and  _154
REMARK   63  A    between atoms: _154  and  _155
REMARK   64  A    between atoms: _160  and  _162
REMARK   65  A    between atoms: _162  and  _163
REMARK   66  A    between atoms: _162  and  _165
REMARK   67  A    between atoms: _165  and  _166
REMARK   68  A    between atoms: _169  and  _171
REMARK   69  A    between atoms: _171  and  _172
REMARK   70  A    between atoms: _171  and  _174
REMARK   71  A    between atoms: _174  and  _175
REMARK   72  A    between atoms: _181  and  _183
REMARK   73  A    between atoms: _183  and  _184
REMARK   74  A    between atoms: _183  and  _186
REMARK   75  A    between atoms: _189  and  _191
REMARK   76  A    between atoms: _191  and  _192
REMARK   77  A    between atoms: _191  and  _194
REMARK   78  A    between atoms: _194  and  _195
REMARK   79  A    between atoms: _199  and  ZN_637
REMARK   80  A    between atoms: _200  and  _202
REMARK   81  A    between atoms: _202  and  _203
REMARK   82  A    between atoms: _202  and  _205
REMARK   83  A    between atoms: _205  and  _206
REMARK   84  A    between atoms: _206  and  _207
REMARK   85  A    between atoms: _210  and  _212
REMARK   86  A    between atoms: _212  and  _213
REMARK   87  A    between atoms: _212  and  _215
REMARK   88  A    between atoms: _215  and  _216
REMARK   89  A    between atoms: _219  and  _221
REMARK   90  A    between atoms: _221  and  _222
REMARK   91  A    between atoms: _221  and  _224
REMARK   92  A    between atoms: _224  and  _225
REMARK   93  A    between atoms: _229  and  ZN_637
REMARK   94  A    between atoms: _230  and  _232
REMARK   95  A    between atoms: _232  and  _233
REMARK   96  A    between atoms: _232  and  _235
REMARK   97  A    between atoms: _235  and  _236
REMARK   98  A    between atoms: _239  and  _241
REMARK   99  A    between atoms: _241  and  _242
REMARK  100  A    between atoms: _241  and  _244
REMARK  101  A    between atoms: _244  and  _245
REMARK  102  A    between atoms: _250  and  _252
REMARK  103  A    between atoms: _252  and  _253
REMARK  104  A    between atoms: _252  and  _255
REMARK  105  A    between atoms: _255  and  _256
REMARK  106  A    between atoms: _261  and  _263
REMARK  107  A    between atoms: _263  and  _264
REMARK  108  A    between atoms: _263  and  _266
REMARK  109  A    between atoms: _266  and  _267
REMARK  110  A    between atoms: _270  and  _272
REMARK  111  A    between atoms: _272  and  _273
REMARK  112  A    between atoms: _272  and  _275
REMARK  113  A    between atoms: _275  and  _276
REMARK  114  A    between atoms: _286  and  _288
REMARK  115  A    between atoms: _288  and  _289
REMARK  116  A    between atoms: _288  and  _291
REMARK  117  A    between atoms: _291  and  _292
REMARK  118  A    between atoms: _295  and  _297
REMARK  119  A    between atoms: _297  and  _298
REMARK  120  A    between atoms: _297  and  _300
REMARK  121  A    between atoms: _300  and  _301
REMARK  122  A    between atoms: _306  and  _308
REMARK  123  A    between atoms: _308  and  _309
REMARK  124  A    between atoms: _308  and  _311
REMARK  125  A    between atoms: _311  and  _312
REMARK  126  A    between atoms: _318  and  _320
REMARK  127  A    between atoms: _320  and  _321
REMARK  128  A    between atoms: _320  and  _323
REMARK  129  A    between atoms: _323  and  _324
REMARK  130  A    between atoms: _334  and  _336
REMARK  131  A    between atoms: _336  and  _337
REMARK  132  A    between atoms: _336  and  _339
REMARK  133  A    between atoms: _339  and  _340
REMARK  134  A    between atoms: _343  and  _345
REMARK  135  A    between atoms: _345  and  _346
REMARK  136  A    between atoms: _345  and  _348
REMARK  137  A    between atoms: _348  and  _349
REMARK  138  A    between atoms: _354  and  _356
REMARK  139  A    between atoms: _356  and  _357
REMARK  140  A    between atoms: _356  and  _359
REMARK  141  A    between atoms: _359  and  _360
REMARK  142  A    between atoms: _360  and  _361
REMARK  143  A    between atoms: _361  and  _362
REMARK  144  A    between atoms: _362  and  ZN_637
REMARK  145  A    between atoms: _364  and  _366
REMARK  146  A    between atoms: _366  and  _367
REMARK  147  A    between atoms: _366  and  _369
REMARK  148  A    between atoms: _369  and  _370
REMARK  149  A    between atoms: _373  and  _375
REMARK  150  A    between atoms: _375  and  _376
REMARK  151  A    between atoms: _375  and  _378
REMARK  152  A    between atoms: _381  and  _383
REMARK  153  A    between atoms: _383  and  _384
REMARK  154  A    between atoms: _383  and  _386
REMARK  155  A    between atoms: _386  and  _387
REMARK  156  A    between atoms: _387  and  _388
REMARK  157  A    between atoms: _391  and  _393
REMARK  158  A    between atoms: _393  and  _394
REMARK  159  A    between atoms: _393  and  _396
REMARK  160  A    between atoms: _396  and  _397
REMARK  161  A    between atoms: _404  and  _405
REMARK  162  A    between atoms: _410  and  _412
REMARK  163  A    between atoms: _412  and  _413
REMARK  164  A    between atoms: _412  and  _415
REMARK  165  A    between atoms: _415  and  _416
REMARK  166  A    between atoms: _422  and  _424
REMARK  167  A    between atoms: _424  and  _425
REMARK  168  A    between atoms: _424  and  _427
REMARK  169  A    between atoms: _427  and  _428
REMARK  170  A    between atoms: _431  and  _433
REMARK  171  A    between atoms: _433  and  _434
REMARK  172  A    between atoms: _433  and  _436
REMARK  173  A    between atoms: _436  and  _437
REMARK  174  A    between atoms: _437  and  _438
REMARK  175  A    between atoms: _438  and  _439
REMARK  176  A    between atoms: _439  and  _440
REMARK  177  A    between atoms: _444  and  _446
REMARK  178  A    between atoms: _446  and  _447
REMARK  179  A    between atoms: _446  and  _449
REMARK  180  A    between atoms: _449  and  _450
REMARK  181  A    between atoms: _453  and  _455
REMARK  182  A    between atoms: _455  and  _456
REMARK  183  A    between atoms: _455  and  _458
REMARK  184  A    between atoms: _461  and  _463
REMARK  185  A    between atoms: _463  and  _464
REMARK  186  A    between atoms: _463  and  _466
REMARK  187  A    between atoms: _469  and  _471
REMARK  188  A    between atoms: _471  and  _472
REMARK  189  A    between atoms: _471  and  _474
REMARK  190  A    between atoms: _474  and  _475
REMARK  191  A    between atoms: _478  and  _480
REMARK  192  A    between atoms: _480  and  _481
REMARK  193  A    between atoms: _480  and  _483
REMARK  194  A    between atoms: _483  and  _484
REMARK  195  A    between atoms: _487  and  _489
REMARK  196  A    between atoms: _489  and  _490
REMARK  197  A    between atoms: _489  and  _492
REMARK  198  A    between atoms: _492  and  _493
REMARK  199  A    between atoms: _496  and  _498
REMARK  200  A    between atoms: _498  and  _499
REMARK  201  A    between atoms: _498  and  _501
REMARK  202  A    between atoms: _501  and  _502
REMARK  203  A    between atoms: _506  and  _507
REMARK  204  A    between atoms: _512  and  _514
REMARK  205  A    between atoms: _514  and  _515
REMARK  206  A    between atoms: _514  and  _517
REMARK  207  A    between atoms: _517  and  _518
REMARK  208  A    between atoms: _521  and  _523
REMARK  209  A    between atoms: _523  and  _524
REMARK  210  A    between atoms: _523  and  _526
REMARK  211  A    between atoms: _529  and  _531
REMARK  212  A    between atoms: _531  and  _532
REMARK  213  A    between atoms: _535  and  _537
REMARK  214  A    between atoms: _537  and  _538
REMARK  215  A    between atoms: _537  and  _540
REMARK  216  A    between atoms: _540  and  _541
REMARK  217  A    between atoms: _546  and  _547
REMARK  218  A    between atoms: _549  and  _551
REMARK  219  A    between atoms: _551  and  _552
REMARK  220  A    between atoms: _551  and  _554
REMARK  221  A    between atoms: _554  and  _555
REMARK  222  A    between atoms: _557  and  _559
REMARK  223  A    between atoms: _559  and  _560
REMARK  224  A    between atoms: _559  and  _562
REMARK  225  A    between atoms: _562  and  _563
REMARK  226  A    between atoms: _565  and  _567
REMARK  227  A    between atoms: _567  and  _568
REMARK  228  A    between atoms: _567  and  _570
REMARK  229  A    between atoms: _574  and  _575
REMARK  230  A    between atoms: _580  and  _582
REMARK  231  A    between atoms: _582  and  _583
REMARK  232  A    between atoms: _582  and  _585
REMARK  233  A    between atoms: _585  and  _586
REMARK  234  A    between atoms: _591  and  _592
REMARK  235  A    between atoms: _594  and  _596
REMARK  236  A    between atoms: _596  and  _597
REMARK  237  A    between atoms: _596  and  _599
REMARK  238  A    between atoms: _599  and  _600
REMARK  239  A    between atoms: _600  and  _601
REMARK  240  A    between atoms: _601  and  _602
REMARK  241  A    between atoms: _611  and  _613
REMARK  242  A    between atoms: _613  and  _614
REMARK  243  A    between atoms: _613  and  _616
REMARK  244  A    between atoms: _616  and  _617
REMARK  245  A    between atoms: _617  and  _618
REMARK  246  A    between atoms: _620  and  _622
REMARK  247  A    between atoms: _622  and  _623
REMARK  248  A    between atoms: _622  and  _625
REMARK  249  A    between atoms: _628  and  _630
REMARK  250  A    between atoms: _630  and  _631
REMARK  251  A    between atoms: _630  and  _633
REMARK  252  A    between atoms: _633  and  _634
REMARK                            x       y       z     vdW  Elec       q    Type
REMARK                         _______ _______ _______ _____ _____    ______ ____
ROOT
ATOM      1  O   HOH     1      37.904  88.476   5.414  0.00  0.00    +0.000 OA
ENDROOT
TORSDOF 0
REMARK  Name = ../refined-set-2016/3fh7/3fh7_pocket.pdb
REMARK  252 active torsions:
REMARK  status: ('A' for Active; 'I' for Inactive)
REMARK    1  A    between atoms: _1  and  _3
REMARK    2  A    between atoms: _3  and  _4
REMARK    3  A    between atoms: _3  and  _6
REMARK    4  A    between atoms: _8  and  _10
REMARK    5  A    between atoms: _10  and  _11
REMARK    6  A    between atoms: _10  and  _13
REMARK    7  A    between atoms: _13  and  _14
REMARK    8  A    between atoms: _16  and  _18
REMARK    9  A    between atoms: _18  and  _19
REMARK   10  A    between atoms: _18  and  _21
REMARK   11  A    between atoms: _21  and  _22
REMARK   12  A    between atoms: _22  and  _23
REMARK   13  A    between atoms: _28  and  _30
REMARK   14  A    between atoms: _30  and  _31
REMARK   15  A    between atoms: _30  and  _33
REMARK   16  A    between atoms: _35  and  _37
REMARK   17  A    between atoms: _37  and  _38
REMARK   18  A    between atoms: _37  and  _40
REMARK   19  A    between atoms: _40  and  _41
REMARK   20  A    between atoms: _41  and  _42
REMARK   21  A    between atoms: _47  and  _49
REMARK   22  A    between atoms: _49  and  _50
REMARK   23  A    between atoms: _53  and  _55
REMARK   24  A    between atoms: _55  and  _56
REMARK   25  A    between atoms: _55  and  _58
REMARK   26  A    between atoms: _58  and  _59
REMARK   27  A    between atoms: _62  and  _64
REMARK   28  A    between atoms: _64  and  _65
REMARK   29  A    between atoms: _64  and  _67
REMARK   30  A    between atoms: _67  and  _68
REMARK   31  A    between atoms: _73  and  _75
REMARK   32  A    between atoms: _75  and  _76
REMARK   33  A    between atoms: _75  and  _78
REMARK   34  A    between atoms: _78  and  _79
REMARK   35  A    between atoms: _84  and  _85
REMARK   36  A    between atoms: _87  and  _89
REMARK   37  A    between atoms: _89  and  _90
REMARK   38  A    between atoms: _89  and  _92
REMARK   39  A    between atoms: _92  and  _93
REMARK   40  A    between atoms: _100  and  _101
REMARK   41  A    between atoms: _106  and  _108
REMARK   42  A    between atoms: _108  and  _109
REMARK   43  A    between atoms: _108  and  _111
REMARK   44  A    between atoms: _111  and  _112
REMARK   45  A    between atoms: _117  and  _118
REMARK   46  A    between atoms: _120  and  _122
REMARK   47  A    between atoms: _122  and  _123
REMARK   48  A    between atoms: _125  and  _127
REMARK   49  A    between atoms: _127  and  _128
REMARK   50  A    between atoms: _130  and  _132
REMARK   51  A    between atoms: _132  and  _133
REMARK   52  A    between atoms: _132  and  _135
REMARK   53  A    between atoms: _135  and  _136
REMARK   54  A    between atoms: _136  and  _137
REMARK   55  A    between atoms: _139  and  _141
REMARK   56  A    between atoms: _141  and  _142
REMARK   57  A    between atoms: _141  and  _144
REMARK   58  A    between atoms: _144  and  _145
REMARK   59  A    between atoms: _145  and  _146
REMARK   60  A    between atoms: _149  and  _151
REMARK   61  A    between atoms: _151  and  _152
REMARK   62  A    between atoms: _151  and  _154
REMARK   63  A    between atoms: _154  and  _155
REMARK   64  A    between atoms: _160  and  _162
REMARK   65  A    between atoms: _162  and  _163
REMARK   66  A    between atoms: _162  and  _165
REMARK   67  A    between atoms: _165  and  _166
REMARK   68  A    between atoms: _169  and  _171
REMARK   69  A    between atoms: _171  and  _172
REMARK   70  A    between atoms: _171  and  _174
REMARK   71  A    between atoms: _174  and  _175
REMARK   72  A    between atoms: _181  and  _183
REMARK   73  A    between atoms: _183  and  _184
REMARK   74  A    between atoms: _183  and  _186
REMARK   75  A    between atoms: _189  and  _191
REMARK   76  A    between atoms: _191  and  _192
REMARK   77  A    between atoms: _191  and  _194
REMARK   78  A    between atoms: _194  and  _195
REMARK   79  A    between atoms: _199  and  ZN_637
REMARK   80  A    between atoms: _200  and  _202
REMARK   81  A    between atoms: _202  and  _203
REMARK   82  A    between atoms: _202  and  _205
REMARK   83  A    between atoms: _205  and  _206
REMARK   84  A    between atoms: _206  and  _207
REMARK   85  A    between atoms: _210  and  _212
REMARK   86  A    between atoms: _212  and  _213
REMARK   87  A    between atoms: _212  and  _215
REMARK   88  A    between atoms: _215  and  _216
REMARK   89  A    between atoms: _219  and  _221
REMARK   90  A    between atoms: _221  and  _222
REMARK   91  A    between atoms: _221  and  _224
REMARK   92  A    between atoms: _224  and  _225
REMARK   93  A    between atoms: _229  and  ZN_637
REMARK   94  A    between atoms: _230  and  _232
REMARK   95  A    between atoms: _232  and  _233
REMARK   96  A    between atoms: _232  and  _235
REMARK   97  A    between atoms: _235  and  _236
REMARK   98  A    between atoms: _239  and  _241
REMARK   99  A    between atoms: _241  and  _242
REMARK  100  A    between atoms: _241  and  _244
REMARK  101  A    between atoms: _244  and  _245
REMARK  102  A    between atoms: _250  and  _252
REMARK  103  A    between atoms: _252  and  _253
REMARK  104  A    between atoms: _252  and  _255
REMARK  105  A    between atoms: _255  and  _256
REMARK  106  A    between atoms: _261  and  _263
REMARK  107  A    between atoms: _263  and  _264
REMARK  108  A    between atoms: _263  and  _266
REMARK  109  A    between atoms: _266  and  _267
REMARK  110  A    between atoms: _270  and  _272
REMARK  111  A    between atoms: _272  and  _273
REMARK  112  A    between atoms: _272  and  _275
REMARK  113  A    between atoms: _275  and  _276
REMARK  114  A    between atoms: _286  and  _288
REMARK  115  A    between atoms: _288  and  _289
REMARK  116  A    between atoms: _288  and  _291
REMARK  117  A    between atoms: _291  and  _292
REMARK  118  A    between atoms: _295  and  _297
REMARK  119  A    between atoms: _297  and  _298
REMARK  120  A    between atoms: _297  and  _300
REMARK  121  A    between atoms: _300  and  _301
REMARK  122  A    between atoms: _306  and  _308
REMARK  123  A    between atoms: _308  and  _309
REMARK  124  A    between atoms: _308  and  _311
REMARK  125  A    between atoms: _311  and  _312
REMARK  126  A    between atoms: _318  and  _320
REMARK  127  A    between atoms: _320  and  _321
REMARK  128  A    between atoms: _320  and  _323
REMARK  129  A    between atoms: _323  and  _324
REMARK  130  A    between atoms: _334  and  _336
REMARK  131  A    between atoms: _336  and  _337
REMARK  132  A    between atoms: _336  and  _339
REMARK  133  A    between atoms: _339  and  _340
REMARK  134  A    between atoms: _343  and  _345
REMARK  135  A    between atoms: _345  and  _346
REMARK  136  A    between atoms: _345  and  _348
REMARK  137  A    between atoms: _348  and  _349
REMARK  138  A    between atoms: _354  and  _356
REMARK  139  A    between atoms: _356  and  _357
REMARK  140  A    between atoms: _356  and  _359
REMARK  141  A    between atoms: _359  and  _360
REMARK  142  A    between atoms: _360  and  _361
REMARK  143  A    between atoms: _361  and  _362
REMARK  144  A    between atoms: _362  and  ZN_637
REMARK  145  A    between atoms: _364  and  _366
REMARK  146  A    between atoms: _366  and  _367
REMARK  147  A    between atoms: _366  and  _369
REMARK  148  A    between atoms: _369  and  _370
REMARK  149  A    between atoms: _373  and  _375
REMARK  150  A    between atoms: _375  and  _376
REMARK  151  A    between atoms: _375  and  _378
REMARK  152  A    between atoms: _381  and  _383
REMARK  153  A    between atoms: _383  and  _384
REMARK  154  A    between atoms: _383  and  _386
REMARK  155  A    between atoms: _386  and  _387
REMARK  156  A    between atoms: _387  and  _388
REMARK  157  A    between atoms: _391  and  _393
REMARK  158  A    between atoms: _393  and  _394
REMARK  159  A    between atoms: _393  and  _396
REMARK  160  A    between atoms: _396  and  _397
REMARK  161  A    between atoms: _404  and  _405
REMARK  162  A    between atoms: _410  and  _412
REMARK  163  A    between atoms: _412  and  _413
REMARK  164  A    between atoms: _412  and  _415
REMARK  165  A    between atoms: _415  and  _416
REMARK  166  A    between atoms: _422  and  _424
REMARK  167  A    between atoms: _424  and  _425
REMARK  168  A    between atoms: _424  and  _427
REMARK  169  A    between atoms: _427  and  _428
REMARK  170  A    between atoms: _431  and  _433
REMARK  171  A    between atoms: _433  and  _434
REMARK  172  A    between atoms: _433  and  _436
REMARK  173  A    between atoms: _436  and  _437
REMARK  174  A    between atoms: _437  and  _438
REMARK  175  A    between atoms: _438  and  _439
REMARK  176  A    between atoms: _439  and  _440
REMARK  177  A    between atoms: _444  and  _446
REMARK  178  A    between atoms: _446  and  _447
REMARK  179  A    between atoms: _446  and  _449
REMARK  180  A    between atoms: _449  and  _450
REMARK  181  A    between atoms: _453  and  _455
REMARK  182  A    between atoms: _455  and  _456
REMARK  183  A    between atoms: _455  and  _458
REMARK  184  A    between atoms: _461  and  _463
REMARK  185  A    between atoms: _463  and  _464
REMARK  186  A    between atoms: _463  and  _466
REMARK  187  A    between atoms: _469  and  _471
REMARK  188  A    between atoms: _471  and  _472
REMARK  189  A    between atoms: _471  and  _474
REMARK  190  A    between atoms: _474  and  _475
REMARK  191  A    between atoms: _478  and  _480
REMARK  192  A    between atoms: _480  and  _481
REMARK  193  A    between atoms: _480  and  _483
REMARK  194  A    between atoms: _483  and  _484
REMARK  195  A    between atoms: _487  and  _489
REMARK  196  A    between atoms: _489  and  _490
REMARK  197  A    between atoms: _489  and  _492
REMARK  198  A    between atoms: _492  and  _493
REMARK  199  A    between atoms: _496  and  _498
REMARK  200  A    between atoms: _498  and  _499
REMARK  201  A    between atoms: _498  and  _501
REMARK  202  A    between atoms: _501  and  _502
REMARK  203  A    between atoms: _506  and  _507
REMARK  204  A    between atoms: _512  and  _514
REMARK  205  A    between atoms: _514  and  _515
REMARK  206  A    between atoms: _514  and  _517
REMARK  207  A    between atoms: _517  and  _518
REMARK  208  A    between atoms: _521  and  _523
REMARK  209  A    between atoms: _523  and  _524
REMARK  210  A    between atoms: _523  and  _526
REMARK  211  A    between atoms: _529  and  _531
REMARK  212  A    between atoms: _531  and  _532
REMARK  213  A    between atoms: _535  and  _537
REMARK  214  A    between atoms: _537  and  _538
REMARK  215  A    between atoms: _537  and  _540
REMARK  216  A    between atoms: _540  and  _541
REMARK  217  A    between atoms: _546  and  _547
REMARK  218  A    between atoms: _549  and  _551
REMARK  219  A    between atoms: _551  and  _552
REMARK  220  A    between atoms: _551  and  _554
REMARK  221  A    between atoms: _554  and  _555
REMARK  222  A    between atoms: _557  and  _559
REMARK  223  A    between atoms: _559  and  _560
REMARK  224  A    between atoms: _559  and  _562
REMARK  225  A    between atoms: _562  and  _563
REMARK  226  A    between atoms: _565  and  _567
REMARK  227  A    between atoms: _567  and  _568
REMARK  228  A    between atoms: _567  and  _570
REMARK  229  A    between atoms: _574  and  _575
REMARK  230  A    between atoms: _580  and  _582
REMARK  231  A    between atoms: _582  and  _583
REMARK  232  A    between atoms: _582  and  _585
REMARK  233  A    between atoms: _585  and  _586
REMARK  234  A    between atoms: _591  and  _592
REMARK  235  A    between atoms: _594  and  _596
REMARK  236  A    between atoms: _596  and  _597
REMARK  237  A    between atoms: _596  and  _599
REMARK  238  A    between atoms: _599  and  _600
REMARK  239  A    between atoms: _600  and  _601
REMARK  240  A    between atoms: _601  and  _602
REMARK  241  A    between atoms: _611  and  _613
REMARK  242  A    between atoms: _613  and  _614
REMARK  243  A    between atoms: _613  and  _616
REMARK  244  A    between atoms: _616  and  _617
REMARK  245  A    between atoms: _617  and  _618
REMARK  246  A    between atoms: _620  and  _622
REMARK  247  A    between atoms: _622  and  _623
REMARK  248  A    between atoms: _622  and  _625
REMARK  249  A    between atoms: _628  and  _630
REMARK  250  A    between atoms: _630  and  _631
REMARK  251  A    between atoms: _630  and  _633
REMARK  252  A    between atoms: _633  and  _634
REMARK                            x       y       z     vdW  Elec       q    Type
REMARK                         _______ _______ _______ _____ _____    ______ ____
ROOT
ATOM      1  O   HOH     1      23.475  80.110   3.475  0.00  0.00    +0.000 OA
ENDROOT
TORSDOF 0
REMARK  Name = ../refined-set-2016/3fh7/3fh7_pocket.pdb
REMARK  252 active torsions:
REMARK  status: ('A' for Active; 'I' for Inactive)
REMARK    1  A    between atoms: _1  and  _3
REMARK    2  A    between atoms: _3  and  _4
REMARK    3  A    between atoms: _3  and  _6
REMARK    4  A    between atoms: _8  and  _10
REMARK    5  A    between atoms: _10  and  _11
REMARK    6  A    between atoms: _10  and  _13
REMARK    7  A    between atoms: _13  and  _14
REMARK    8  A    between atoms: _16  and  _18
REMARK    9  A    between atoms: _18  and  _19
REMARK   10  A    between atoms: _18  and  _21
REMARK   11  A    between atoms: _21  and  _22
REMARK   12  A    between atoms: _22  and  _23
REMARK   13  A    between atoms: _28  and  _30
REMARK   14  A    between atoms: _30  and  _31
REMARK   15  A    between atoms: _30  and  _33
REMARK   16  A    between atoms: _35  and  _37
REMARK   17  A    between atoms: _37  and  _38
REMARK   18  A    between atoms: _37  and  _40
REMARK   19  A    between atoms: _40  and  _41
REMARK   20  A    between atoms: _41  and  _42
REMARK   21  A    between atoms: _47  and  _49
REMARK   22  A    between atoms: _49  and  _50
REMARK   23  A    between atoms: _53  and  _55
REMARK   24  A    between atoms: _55  and  _56
REMARK   25  A    between atoms: _55  and  _58
REMARK   26  A    between atoms: _58  and  _59
REMARK   27  A    between atoms: _62  and  _64
REMARK   28  A    between atoms: _64  and  _65
REMARK   29  A    between atoms: _64  and  _67
REMARK   30  A    between atoms: _67  and  _68
REMARK   31  A    between atoms: _73  and  _75
REMARK   32  A    between atoms: _75  and  _76
REMARK   33  A    between atoms: _75  and  _78
REMARK   34  A    between atoms: _78  and  _79
REMARK   35  A    between atoms: _84  and  _85
REMARK   36  A    between atoms: _87  and  _89
REMARK   37  A    between atoms: _89  and  _90
REMARK   38  A    between atoms: _89  and  _92
REMARK   39  A    between atoms: _92  and  _93
REMARK   40  A    between atoms: _100  and  _101
REMARK   41  A    between atoms: _106  and  _108
REMARK   42  A    between atoms: _108  and  _109
REMARK   43  A    between atoms: _108  and  _111
REMARK   44  A    between atoms: _111  and  _112
REMARK   45  A    between atoms: _117  and  _118
REMARK   46  A    between atoms: _120  and  _122
REMARK   47  A    between atoms: _122  and  _123
REMARK   48  A    between atoms: _125  and  _127
REMARK   49  A    between atoms: _127  and  _128
REMARK   50  A    between atoms: _130  and  _132
REMARK   51  A    between atoms: _132  and  _133
REMARK   52  A    between atoms: _132  and  _135
REMARK   53  A    between atoms: _135  and  _136
REMARK   54  A    between atoms: _136  and  _137
REMARK   55  A    between atoms: _139  and  _141
REMARK   56  A    between atoms: _141  and  _142
REMARK   57  A    between atoms: _141  and  _144
REMARK   58  A    between atoms: _144  and  _145
REMARK   59  A    between atoms: _145  and  _146
REMARK   60  A    between atoms: _149  and  _151
REMARK   61  A    between atoms: _151  and  _152
REMARK   62  A    between atoms: _151  and  _154
REMARK   63  A    between atoms: _154  and  _155
REMARK   64  A    between atoms: _160  and  _162
REMARK   65  A    between atoms: _162  and  _163
REMARK   66  A    between atoms: _162  and  _165
REMARK   67  A    between atoms: _165  and  _166
REMARK   68  A    between atoms: _169  and  _171
REMARK   69  A    between atoms: _171  and  _172
REMARK   70  A    between atoms: _171  and  _174
REMARK   71  A    between atoms: _174  and  _175
REMARK   72  A    between atoms: _181  and  _183
REMARK   73  A    between atoms: _183  and  _184
REMARK   74  A    between atoms: _183  and  _186
REMARK   75  A    between atoms: _189  and  _191
REMARK   76  A    between atoms: _191  and  _192
REMARK   77  A    between atoms: _191  and  _194
REMARK   78  A    between atoms: _194  and  _195
REMARK   79  A    between atoms: _199  and  ZN_637
REMARK   80  A    between atoms: _200  and  _202
REMARK   81  A    between atoms: _202  and  _203
REMARK   82  A    between atoms: _202  and  _205
REMARK   83  A    between atoms: _205  and  _206
REMARK   84  A    between atoms: _206  and  _207
REMARK   85  A    between atoms: _210  and  _212
REMARK   86  A    between atoms: _212  and  _213
REMARK   87  A    between atoms: _212  and  _215
REMARK   88  A    between atoms: _215  and  _216
REMARK   89  A    between atoms: _219  and  _221
REMARK   90  A    between atoms: _221  and  _222
REMARK   91  A    between atoms: _221  and  _224
REMARK   92  A    between atoms: _224  and  _225
REMARK   93  A    between atoms: _229  and  ZN_637
REMARK   94  A    between atoms: _230  and  _232
REMARK   95  A    between atoms: _232  and  _233
REMARK   96  A    between atoms: _232  and  _235
REMARK   97  A    between atoms: _235  and  _236
REMARK   98  A    between atoms: _239  and  _241
REMARK   99  A    between atoms: _241  and  _242
REMARK  100  A    between atoms: _241  and  _244
REMARK  101  A    between atoms: _244  and  _245
REMARK  102  A    between atoms: _250  and  _252
REMARK  103  A    between atoms: _252  and  _253
REMARK  104  A    between atoms: _252  and  _255
REMARK  105  A    between atoms: _255  and  _256
REMARK  106  A    between atoms: _261  and  _263
REMARK  107  A    between atoms: _263  and  _264
REMARK  108  A    between atoms: _263  and  _266
REMARK  109  A    between atoms: _266  and  _267
REMARK  110  A    between atoms: _270  and  _272
REMARK  111  A    between atoms: _272  and  _273
REMARK  112  A    between atoms: _272  and  _275
REMARK  113  A    between atoms: _275  and  _276
REMARK  114  A    between atoms: _286  and  _288
REMARK  115  A    between atoms: _288  and  _289
REMARK  116  A    between atoms: _288  and  _291
REMARK  117  A    between atoms: _291  and  _292
REMARK  118  A    between atoms: _295  and  _297
REMARK  119  A    between atoms: _297  and  _298
REMARK  120  A    between atoms: _297  and  _300
REMARK  121  A    between atoms: _300  and  _301
REMARK  122  A    between atoms: _306  and  _308
REMARK  123  A    between atoms: _308  and  _309
REMARK  124  A    between atoms: _308  and  _311
REMARK  125  A    between atoms: _311  and  _312
REMARK  126  A    between atoms: _318  and  _320
REMARK  127  A    between atoms: _320  and  _321
REMARK  128  A    between atoms: _320  and  _323
REMARK  129  A    between atoms: _323  and  _324
REMARK  130  A    between atoms: _334  and  _336
REMARK  131  A    between atoms: _336  and  _337
REMARK  132  A    between atoms: _336  and  _339
REMARK  133  A    between atoms: _339  and  _340
REMARK  134  A    between atoms: _343  and  _345
REMARK  135  A    between atoms: _345  and  _346
REMARK  136  A    between atoms: _345  and  _348
REMARK  137  A    between atoms: _348  and  _349
REMARK  138  A    between atoms: _354  and  _356
REMARK  139  A    between atoms: _356  and  _357
REMARK  140  A    between atoms: _356  and  _359
REMARK  141  A    between atoms: _359  and  _360
REMARK  142  A    between atoms: _360  and  _361
REMARK  143  A    between atoms: _361  and  _362
REMARK  144  A    between atoms: _362  and  ZN_637
REMARK  145  A    between atoms: _364  and  _366
REMARK  146  A    between atoms: _366  and  _367
REMARK  147  A    between atoms: _366  and  _369
REMARK  148  A    between atoms: _369  and  _370
REMARK  149  A    between atoms: _373  and  _375
REMARK  150  A    between atoms: _375  and  _376
REMARK  151  A    between atoms: _375  and  _378
REMARK  152  A    between atoms: _381  and  _383
REMARK  153  A    between atoms: _383  and  _384
REMARK  154  A    between atoms: _383  and  _386
REMARK  155  A    between atoms: _386  and  _387
REMARK  156  A    between atoms: _387  and  _388
REMARK  157  A    between atoms: _391  and  _393
REMARK  158  A    between atoms: _393  and  _394
REMARK  159  A    between atoms: _393  and  _396
REMARK  160  A    between atoms: _396  and  _397
REMARK  161  A    between atoms: _404  and  _405
REMARK  162  A    between atoms: _410  and  _412
REMARK  163  A    between atoms: _412  and  _413
REMARK  164  A    between atoms: _412  and  _415
REMARK  165  A    between atoms: _415  and  _416
REMARK  166  A    between atoms: _422  and  _424
REMARK  167  A    between atoms: _424  and  _425
REMARK  168  A    between atoms: _424  and  _427
REMARK  169  A    between atoms: _427  and  _428
REMARK  170  A    between atoms: _431  and  _433
REMARK  171  A    between atoms: _433  and  _434
REMARK  172  A    between atoms: _433  and  _436
REMARK  173  A    between atoms: _436  and  _437
REMARK  174  A    between atoms: _437  and  _438
REMARK  175  A    between atoms: _438  and  _439
REMARK  176  A    between atoms: _439  and  _440
REMARK  177  A    between atoms: _444  and  _446
REMARK  178  A    between atoms: _446  and  _447
REMARK  179  A    between atoms: _446  and  _449
REMARK  180  A    between atoms: _449  and  _450
REMARK  181  A    between atoms: _453  and  _455
REMARK  182  A    between atoms: _455  and  _456
REMARK  183  A    between atoms: _455  and  _458
REMARK  184  A    between atoms: _461  and  _463
REMARK  185  A    between atoms: _463  and  _464
REMARK  186  A    between atoms: _463  and  _466
REMARK  187  A    between atoms: _469  and  _471
REMARK  188  A    between atoms: _471  and  _472
REMARK  189  A    between atoms: _471  and  _474
REMARK  190  A    between atoms: _474  and  _475
REMARK  191  A    between atoms: _478  and  _480
REMARK  192  A    between atoms: _480  and  _481
REMARK  193  A    between atoms: _480  and  _483
REMARK  194  A    between atoms: _483  and  _484
REMARK  195  A    between atoms: _487  and  _489
REMARK  196  A    between atoms: _489  and  _490
REMARK  197  A    between atoms: _489  and  _492
REMARK  198  A    between atoms: _492  and  _493
REMARK  199  A    between atoms: _496  and  _498
REMARK  200  A    between atoms: _498  and  _499
REMARK  201  A    between atoms: _498  and  _501
REMARK  202  A    between atoms: _501  and  _502
REMARK  203  A    between atoms: _506  and  _507
REMARK  204  A    between atoms: _512  and  _514
REMARK  205  A    between atoms: _514  and  _515
REMARK  206  A    between atoms: _514  and  _517
REMARK  207  A    between atoms: _517  and  _518
REMARK  208  A    between atoms: _521  and  _523
REMARK  209  A    between atoms: _523  and  _524
REMARK  210  A    between atoms: _523  and  _526
REMARK  211  A    between atoms: _529  and  _531
REMARK  212  A    between atoms: _531  and  _532
REMARK  213  A    between atoms: _535  and  _537
REMARK  214  A    between atoms: _537  and  _538
REMARK  215  A    between atoms: _537  and  _540
REMARK  216  A    between atoms: _540  and  _541
REMARK  217  A    between atoms: _546  and  _547
REMARK  218  A    between atoms: _549  and  _551
REMARK  219  A    between atoms: _551  and  _552
REMARK  220  A    between atoms: _551  and  _554
REMARK  221  A    between atoms: _554  and  _555
REMARK  222  A    between atoms: _557  and  _559
REMARK  223  A    between atoms: _559  and  _560
REMARK  224  A    between atoms: _559  and  _562
REMARK  225  A    between atoms: _562  and  _563
REMARK  226  A    between atoms: _565  and  _567
REMARK  227  A    between atoms: _567  and  _568
REMARK  228  A    between atoms: _567  and  _570
REMARK  229  A    between atoms: _574  and  _575
REMARK  230  A    between atoms: _580  and  _582
REMARK  231  A    between atoms: _582  and  _583
REMARK  232  A    between atoms: _582  and  _585
REMARK  233  A    between atoms: _585  and  _586
REMARK  234  A    between atoms: _591  and  _592
REMARK  235  A    between atoms: _594  and  _596
REMARK  236  A    between atoms: _596  and  _597
REMARK  237  A    between atoms: _596  and  _599
REMARK  238  A    between atoms: _599  and  _600
REMARK  239  A    between atoms: _600  and  _601
REMARK  240  A    between atoms: _601  and  _602
REMARK  241  A    between atoms: _611  and  _613
REMARK  242  A    between atoms: _613  and  _614
REMARK  243  A    between atoms: _613  and  _616
REMARK  244  A    between atoms: _616  and  _617
REMARK  245  A    between atoms: _617  and  _618
REMARK  246  A    between atoms: _620  and  _622
REMARK  247  A    between atoms: _622  and  _623
REMARK  248  A    between atoms: _622  and  _625
REMARK  249  A    between atoms: _628  and  _630
REMARK  250  A    between atoms: _630  and  _631
REMARK  251  A    between atoms: _630  and  _633
REMARK  252  A    between atoms: _633  and  _634
REMARK                            x       y       z     vdW  Elec       q    Type
REMARK                         _______ _______ _______ _____ _____    ______ ____
ROOT
ATOM      1  O   HOH     1      26.575  81.736   4.185  0.00  0.00    +0.000 OA
ENDROOT
TORSDOF 0
REMARK  Name = ../refined-set-2016/3fh7/3fh7_pocket.pdb
REMARK  252 active torsions:
REMARK  status: ('A' for Active; 'I' for Inactive)
REMARK    1  A    between atoms: _1  and  _3
REMARK    2  A    between atoms: _3  and  _4
REMARK    3  A    between atoms: _3  and  _6
REMARK    4  A    between atoms: _8  and  _10
REMARK    5  A    between atoms: _10  and  _11
REMARK    6  A    between atoms: _10  and  _13
REMARK    7  A    between atoms: _13  and  _14
REMARK    8  A    between atoms: _16  and  _18
REMARK    9  A    between atoms: _18  and  _19
REMARK   10  A    between atoms: _18  and  _21
REMARK   11  A    between atoms: _21  and  _22
REMARK   12  A    between atoms: _22  and  _23
REMARK   13  A    between atoms: _28  and  _30
REMARK   14  A    between atoms: _30  and  _31
REMARK   15  A    between atoms: _30  and  _33
REMARK   16  A    between atoms: _35  and  _37
REMARK   17  A    between atoms: _37  and  _38
REMARK   18  A    between atoms: _37  and  _40
REMARK   19  A    between atoms: _40  and  _41
REMARK   20  A    between atoms: _41  and  _42
REMARK   21  A    between atoms: _47  and  _49
REMARK   22  A    between atoms: _49  and  _50
REMARK   23  A    between atoms: _53  and  _55
REMARK   24  A    between atoms: _55  and  _56
REMARK   25  A    between atoms: _55  and  _58
REMARK   26  A    between atoms: _58  and  _59
REMARK   27  A    between atoms: _62  and  _64
REMARK   28  A    between atoms: _64  and  _65
REMARK   29  A    between atoms: _64  and  _67
REMARK   30  A    between atoms: _67  and  _68
REMARK   31  A    between atoms: _73  and  _75
REMARK   32  A    between atoms: _75  and  _76
REMARK   33  A    between atoms: _75  and  _78
REMARK   34  A    between atoms: _78  and  _79
REMARK   35  A    between atoms: _84  and  _85
REMARK   36  A    between atoms: _87  and  _89
REMARK   37  A    between atoms: _89  and  _90
REMARK   38  A    between atoms: _89  and  _92
REMARK   39  A    between atoms: _92  and  _93
REMARK   40  A    between atoms: _100  and  _101
REMARK   41  A    between atoms: _106  and  _108
REMARK   42  A    between atoms: _108  and  _109
REMARK   43  A    between atoms: _108  and  _111
REMARK   44  A    between atoms: _111  and  _112
REMARK   45  A    between atoms: _117  and  _118
REMARK   46  A    between atoms: _120  and  _122
REMARK   47  A    between atoms: _122  and  _123
REMARK   48  A    between atoms: _125  and  _127
REMARK   49  A    between atoms: _127  and  _128
REMARK   50  A    between atoms: _130  and  _132
REMARK   51  A    between atoms: _132  and  _133
REMARK   52  A    between atoms: _132  and  _135
REMARK   53  A    between atoms: _135  and  _136
REMARK   54  A    between atoms: _136  and  _137
REMARK   55  A    between atoms: _139  and  _141
REMARK   56  A    between atoms: _141  and  _142
REMARK   57  A    between atoms: _141  and  _144
REMARK   58  A    between atoms: _144  and  _145
REMARK   59  A    between atoms: _145  and  _146
REMARK   60  A    between atoms: _149  and  _151
REMARK   61  A    between atoms: _151  and  _152
REMARK   62  A    between atoms: _151  and  _154
REMARK   63  A    between atoms: _154  and  _155
REMARK   64  A    between atoms: _160  and  _162
REMARK   65  A    between atoms: _162  and  _163
REMARK   66  A    between atoms: _162  and  _165
REMARK   67  A    between atoms: _165  and  _166
REMARK   68  A    between atoms: _169  and  _171
REMARK   69  A    between atoms: _171  and  _172
REMARK   70  A    between atoms: _171  and  _174
REMARK   71  A    between atoms: _174  and  _175
REMARK   72  A    between atoms: _181  and  _183
REMARK   73  A    between atoms: _183  and  _184
REMARK   74  A    between atoms: _183  and  _186
REMARK   75  A    between atoms: _189  and  _191
REMARK   76  A    between atoms: _191  and  _192
REMARK   77  A    between atoms: _191  and  _194
REMARK   78  A    between atoms: _194  and  _195
REMARK   79  A    between atoms: _199  and  ZN_637
REMARK   80  A    between atoms: _200  and  _202
REMARK   81  A    between atoms: _202  and  _203
REMARK   82  A    between atoms: _202  and  _205
REMARK   83  A    between atoms: _205  and  _206
REMARK   84  A    between atoms: _206  and  _207
REMARK   85  A    between atoms: _210  and  _212
REMARK   86  A    between atoms: _212  and  _213
REMARK   87  A    between atoms: _212  and  _215
REMARK   88  A    between atoms: _215  and  _216
REMARK   89  A    between atoms: _219  and  _221
REMARK   90  A    between atoms: _221  and  _222
REMARK   91  A    between atoms: _221  and  _224
REMARK   92  A    between atoms: _224  and  _225
REMARK   93  A    between atoms: _229  and  ZN_637
REMARK   94  A    between atoms: _230  and  _232
REMARK   95  A    between atoms: _232  and  _233
REMARK   96  A    between atoms: _232  and  _235
REMARK   97  A    between atoms: _235  and  _236
REMARK   98  A    between atoms: _239  and  _241
REMARK   99  A    between atoms: _241  and  _242
REMARK  100  A    between atoms: _241  and  _244
REMARK  101  A    between atoms: _244  and  _245
REMARK  102  A    between atoms: _250  and  _252
REMARK  103  A    between atoms: _252  and  _253
REMARK  104  A    between atoms: _252  and  _255
REMARK  105  A    between atoms: _255  and  _256
REMARK  106  A    between atoms: _261  and  _263
REMARK  107  A    between atoms: _263  and  _264
REMARK  108  A    between atoms: _263  and  _266
REMARK  109  A    between atoms: _266  and  _267
REMARK  110  A    between atoms: _270  and  _272
REMARK  111  A    between atoms: _272  and  _273
REMARK  112  A    between atoms: _272  and  _275
REMARK  113  A    between atoms: _275  and  _276
REMARK  114  A    between atoms: _286  and  _288
REMARK  115  A    between atoms: _288  and  _289
REMARK  116  A    between atoms: _288  and  _291
REMARK  117  A    between atoms: _291  and  _292
REMARK  118  A    between atoms: _295  and  _297
REMARK  119  A    between atoms: _297  and  _298
REMARK  120  A    between atoms: _297  and  _300
REMARK  121  A    between atoms: _300  and  _301
REMARK  122  A    between atoms: _306  and  _308
REMARK  123  A    between atoms: _308  and  _309
REMARK  124  A    between atoms: _308  and  _311
REMARK  125  A    between atoms: _311  and  _312
REMARK  126  A    between atoms: _318  and  _320
REMARK  127  A    between atoms: _320  and  _321
REMARK  128  A    between atoms: _320  and  _323
REMARK  129  A    between atoms: _323  and  _324
REMARK  130  A    between atoms: _334  and  _336
REMARK  131  A    between atoms: _336  and  _337
REMARK  132  A    between atoms: _336  and  _339
REMARK  133  A    between atoms: _339  and  _340
REMARK  134  A    between atoms: _343  and  _345
REMARK  135  A    between atoms: _345  and  _346
REMARK  136  A    between atoms: _345  and  _348
REMARK  137  A    between atoms: _348  and  _349
REMARK  138  A    between atoms: _354  and  _356
REMARK  139  A    between atoms: _356  and  _357
REMARK  140  A    between atoms: _356  and  _359
REMARK  141  A    between atoms: _359  and  _360
REMARK  142  A    between atoms: _360  and  _361
REMARK  143  A    between atoms: _361  and  _362
REMARK  144  A    between atoms: _362  and  ZN_637
REMARK  145  A    between atoms: _364  and  _366
REMARK  146  A    between atoms: _366  and  _367
REMARK  147  A    between atoms: _366  and  _369
REMARK  148  A    between atoms: _369  and  _370
REMARK  149  A    between atoms: _373  and  _375
REMARK  150  A    between atoms: _375  and  _376
REMARK  151  A    between atoms: _375  and  _378
REMARK  152  A    between atoms: _381  and  _383
REMARK  153  A    between atoms: _383  and  _384
REMARK  154  A    between atoms: _383  and  _386
REMARK  155  A    between atoms: _386  and  _387
REMARK  156  A    between atoms: _387  and  _388
REMARK  157  A    between atoms: _391  and  _393
REMARK  158  A    between atoms: _393  and  _394
REMARK  159  A    between atoms: _393  and  _396
REMARK  160  A    between atoms: _396  and  _397
REMARK  161  A    between atoms: _404  and  _405
REMARK  162  A    between atoms: _410  and  _412
REMARK  163  A    between atoms: _412  and  _413
REMARK  164  A    between atoms: _412  and  _415
REMARK  165  A    between atoms: _415  and  _416
REMARK  166  A    between atoms: _422  and  _424
REMARK  167  A    between atoms: _424  and  _425
REMARK  168  A    between atoms: _424  and  _427
REMARK  169  A    between atoms: _427  and  _428
REMARK  170  A    between atoms: _431  and  _433
REMARK  171  A    between atoms: _433  and  _434
REMARK  172  A    between atoms: _433  and  _436
REMARK  173  A    between atoms: _436  and  _437
REMARK  174  A    between atoms: _437  and  _438
REMARK  175  A    between atoms: _438  and  _439
REMARK  176  A    between atoms: _439  and  _440
REMARK  177  A    between atoms: _444  and  _446
REMARK  178  A    between atoms: _446  and  _447
REMARK  179  A    between atoms: _446  and  _449
REMARK  180  A    between atoms: _449  and  _450
REMARK  181  A    between atoms: _453  and  _455
REMARK  182  A    between atoms: _455  and  _456
REMARK  183  A    between atoms: _455  and  _458
REMARK  184  A    between atoms: _461  and  _463
REMARK  185  A    between atoms: _463  and  _464
REMARK  186  A    between atoms: _463  and  _466
REMARK  187  A    between atoms: _469  and  _471
REMARK  188  A    between atoms: _471  and  _472
REMARK  189  A    between atoms: _471  and  _474
REMARK  190  A    between atoms: _474  and  _475
REMARK  191  A    between atoms: _478  and  _480
REMARK  192  A    between atoms: _480  and  _481
REMARK  193  A    between atoms: _480  and  _483
REMARK  194  A    between atoms: _483  and  _484
REMARK  195  A    between atoms: _487  and  _489
REMARK  196  A    between atoms: _489  and  _490
REMARK  197  A    between atoms: _489  and  _492
REMARK  198  A    between atoms: _492  and  _493
REMARK  199  A    between atoms: _496  and  _498
REMARK  200  A    between atoms: _498  and  _499
REMARK  201  A    between atoms: _498  and  _501
REMARK  202  A    between atoms: _501  and  _502
REMARK  203  A    between atoms: _506  and  _507
REMARK  204  A    between atoms: _512  and  _514
REMARK  205  A    between atoms: _514  and  _515
REMARK  206  A    between atoms: _514  and  _517
REMARK  207  A    between atoms: _517  and  _518
REMARK  208  A    between atoms: _521  and  _523
REMARK  209  A    between atoms: _523  and  _524
REMARK  210  A    between atoms: _523  and  _526
REMARK  211  A    between atoms: _529  and  _531
REMARK  212  A    between atoms: _531  and  _532
REMARK  213  A    between atoms: _535  and  _537
REMARK  214  A    between atoms: _537  and  _538
REMARK  215  A    between atoms: _537  and  _540
REMARK  216  A    between atoms: _540  and  _541
REMARK  217  A    between atoms: _546  and  _547
REMARK  218  A    between atoms: _549  and  _551
REMARK  219  A    between atoms: _551  and  _552
REMARK  220  A    between atoms: _551  and  _554
REMARK  221  A    between atoms: _554  and  _555
REMARK  222  A    between atoms: _557  and  _559
REMARK  223  A    between atoms: _559  and  _560
REMARK  224  A    between atoms: _559  and  _562
REMARK  225  A    between atoms: _562  and  _563
REMARK  226  A    between atoms: _565  and  _567
REMARK  227  A    between atoms: _567  and  _568
REMARK  228  A    between atoms: _567  and  _570
REMARK  229  A    between atoms: _574  and  _575
REMARK  230  A    between atoms: _580  and  _582
REMARK  231  A    between atoms: _582  and  _583
REMARK  232  A    between atoms: _582  and  _585
REMARK  233  A    between atoms: _585  and  _586
REMARK  234  A    between atoms: _591  and  _592
REMARK  235  A    between atoms: _594  and  _596
REMARK  236  A    between atoms: _596  and  _597
REMARK  237  A    between atoms: _596  and  _599
REMARK  238  A    between atoms: _599  and  _600
REMARK  239  A    between atoms: _600  and  _601
REMARK  240  A    between atoms: _601  and  _602
REMARK  241  A    between atoms: _611  and  _613
REMARK  242  A    between atoms: _613  and  _614
REMARK  243  A    between atoms: _613  and  _616
REMARK  244  A    between atoms: _616  and  _617
REMARK  245  A    between atoms: _617  and  _618
REMARK  246  A    between atoms: _620  and  _622
REMARK  247  A    between atoms: _622  and  _623
REMARK  248  A    between atoms: _622  and  _625
REMARK  249  A    between atoms: _628  and  _630
REMARK  250  A    between atoms: _630  and  _631
REMARK  251  A    between atoms: _630  and  _633
REMARK  252  A    between atoms: _633  and  _634
REMARK                            x       y       z     vdW  Elec       q    Type
REMARK                         _______ _______ _______ _____ _____    ______ ____
ROOT
ATOM      1  O   HOH     1      35.257  76.473  -7.128  0.00  0.00    +0.000 OA
ENDROOT
TORSDOF 0
REMARK  Name = ../refined-set-2016/3fh7/3fh7_pocket.pdb
REMARK  252 active torsions:
REMARK  status: ('A' for Active; 'I' for Inactive)
REMARK    1  A    between atoms: _1  and  _3
REMARK    2  A    between atoms: _3  and  _4
REMARK    3  A    between atoms: _3  and  _6
REMARK    4  A    between atoms: _8  and  _10
REMARK    5  A    between atoms: _10  and  _11
REMARK    6  A    between atoms: _10  and  _13
REMARK    7  A    between atoms: _13  and  _14
REMARK    8  A    between atoms: _16  and  _18
REMARK    9  A    between atoms: _18  and  _19
REMARK   10  A    between atoms: _18  and  _21
REMARK   11  A    between atoms: _21  and  _22
REMARK   12  A    between atoms: _22  and  _23
REMARK   13  A    between atoms: _28  and  _30
REMARK   14  A    between atoms: _30  and  _31
REMARK   15  A    between atoms: _30  and  _33
REMARK   16  A    between atoms: _35  and  _37
REMARK   17  A    between atoms: _37  and  _38
REMARK   18  A    between atoms: _37  and  _40
REMARK   19  A    between atoms: _40  and  _41
REMARK   20  A    between atoms: _41  and  _42
REMARK   21  A    between atoms: _47  and  _49
REMARK   22  A    between atoms: _49  and  _50
REMARK   23  A    between atoms: _53  and  _55
REMARK   24  A    between atoms: _55  and  _56
REMARK   25  A    between atoms: _55  and  _58
REMARK   26  A    between atoms: _58  and  _59
REMARK   27  A    between atoms: _62  and  _64
REMARK   28  A    between atoms: _64  and  _65
REMARK   29  A    between atoms: _64  and  _67
REMARK   30  A    between atoms: _67  and  _68
REMARK   31  A    between atoms: _73  and  _75
REMARK   32  A    between atoms: _75  and  _76
REMARK   33  A    between atoms: _75  and  _78
REMARK   34  A    between atoms: _78  and  _79
REMARK   35  A    between atoms: _84  and  _85
REMARK   36  A    between atoms: _87  and  _89
REMARK   37  A    between atoms: _89  and  _90
REMARK   38  A    between atoms: _89  and  _92
REMARK   39  A    between atoms: _92  and  _93
REMARK   40  A    between atoms: _100  and  _101
REMARK   41  A    between atoms: _106  and  _108
REMARK   42  A    between atoms: _108  and  _109
REMARK   43  A    between atoms: _108  and  _111
REMARK   44  A    between atoms: _111  and  _112
REMARK   45  A    between atoms: _117  and  _118
REMARK   46  A    between atoms: _120  and  _122
REMARK   47  A    between atoms: _122  and  _123
REMARK   48  A    between atoms: _125  and  _127
REMARK   49  A    between atoms: _127  and  _128
REMARK   50  A    between atoms: _130  and  _132
REMARK   51  A    between atoms: _132  and  _133
REMARK   52  A    between atoms: _132  and  _135
REMARK   53  A    between atoms: _135  and  _136
REMARK   54  A    between atoms: _136  and  _137
REMARK   55  A    between atoms: _139  and  _141
REMARK   56  A    between atoms: _141  and  _142
REMARK   57  A    between atoms: _141  and  _144
REMARK   58  A    between atoms: _144  and  _145
REMARK   59  A    between atoms: _145  and  _146
REMARK   60  A    between atoms: _149  and  _151
REMARK   61  A    between atoms: _151  and  _152
REMARK   62  A    between atoms: _151  and  _154
REMARK   63  A    between atoms: _154  and  _155
REMARK   64  A    between atoms: _160  and  _162
REMARK   65  A    between atoms: _162  and  _163
REMARK   66  A    between atoms: _162  and  _165
REMARK   67  A    between atoms: _165  and  _166
REMARK   68  A    between atoms: _169  and  _171
REMARK   69  A    between atoms: _171  and  _172
REMARK   70  A    between atoms: _171  and  _174
REMARK   71  A    between atoms: _174  and  _175
REMARK   72  A    between atoms: _181  and  _183
REMARK   73  A    between atoms: _183  and  _184
REMARK   74  A    between atoms: _183  and  _186
REMARK   75  A    between atoms: _189  and  _191
REMARK   76  A    between atoms: _191  and  _192
REMARK   77  A    between atoms: _191  and  _194
REMARK   78  A    between atoms: _194  and  _195
REMARK   79  A    between atoms: _199  and  ZN_637
REMARK   80  A    between atoms: _200  and  _202
REMARK   81  A    between atoms: _202  and  _203
REMARK   82  A    between atoms: _202  and  _205
REMARK   83  A    between atoms: _205  and  _206
REMARK   84  A    between atoms: _206  and  _207
REMARK   85  A    between atoms: _210  and  _212
REMARK   86  A    between atoms: _212  and  _213
REMARK   87  A    between atoms: _212  and  _215
REMARK   88  A    between atoms: _215  and  _216
REMARK   89  A    between atoms: _219  and  _221
REMARK   90  A    between atoms: _221  and  _222
REMARK   91  A    between atoms: _221  and  _224
REMARK   92  A    between atoms: _224  and  _225
REMARK   93  A    between atoms: _229  and  ZN_637
REMARK   94  A    between atoms: _230  and  _232
REMARK   95  A    between atoms: _232  and  _233
REMARK   96  A    between atoms: _232  and  _235
REMARK   97  A    between atoms: _235  and  _236
REMARK   98  A    between atoms: _239  and  _241
REMARK   99  A    between atoms: _241  and  _242
REMARK  100  A    between atoms: _241  and  _244
REMARK  101  A    between atoms: _244  and  _245
REMARK  102  A    between atoms: _250  and  _252
REMARK  103  A    between atoms: _252  and  _253
REMARK  104  A    between atoms: _252  and  _255
REMARK  105  A    between atoms: _255  and  _256
REMARK  106  A    between atoms: _261  and  _263
REMARK  107  A    between atoms: _263  and  _264
REMARK  108  A    between atoms: _263  and  _266
REMARK  109  A    between atoms: _266  and  _267
REMARK  110  A    between atoms: _270  and  _272
REMARK  111  A    between atoms: _272  and  _273
REMARK  112  A    between atoms: _272  and  _275
REMARK  113  A    between atoms: _275  and  _276
REMARK  114  A    between atoms: _286  and  _288
REMARK  115  A    between atoms: _288  and  _289
REMARK  116  A    between atoms: _288  and  _291
REMARK  117  A    between atoms: _291  and  _292
REMARK  118  A    between atoms: _295  and  _297
REMARK  119  A    between atoms: _297  and  _298
REMARK  120  A    between atoms: _297  and  _300
REMARK  121  A    between atoms: _300  and  _301
REMARK  122  A    between atoms: _306  and  _308
REMARK  123  A    between atoms: _308  and  _309
REMARK  124  A    between atoms: _308  and  _311
REMARK  125  A    between atoms: _311  and  _312
REMARK  126  A    between atoms: _318  and  _320
REMARK  127  A    between atoms: _320  and  _321
REMARK  128  A    between atoms: _320  and  _323
REMARK  129  A    between atoms: _323  and  _324
REMARK  130  A    between atoms: _334  and  _336
REMARK  131  A    between atoms: _336  and  _337
REMARK  132  A    between atoms: _336  and  _339
REMARK  133  A    between atoms: _339  and  _340
REMARK  134  A    between atoms: _343  and  _345
REMARK  135  A    between atoms: _345  and  _346
REMARK  136  A    between atoms: _345  and  _348
REMARK  137  A    between atoms: _348  and  _349
REMARK  138  A    between atoms: _354  and  _356
REMARK  139  A    between atoms: _356  and  _357
REMARK  140  A    between atoms: _356  and  _359
REMARK  141  A    between atoms: _359  and  _360
REMARK  142  A    between atoms: _360  and  _361
REMARK  143  A    between atoms: _361  and  _362
REMARK  144  A    between atoms: _362  and  ZN_637
REMARK  145  A    between atoms: _364  and  _366
REMARK  146  A    between atoms: _366  and  _367
REMARK  147  A    between atoms: _366  and  _369
REMARK  148  A    between atoms: _369  and  _370
REMARK  149  A    between atoms: _373  and  _375
REMARK  150  A    between atoms: _375  and  _376
REMARK  151  A    between atoms: _375  and  _378
REMARK  152  A    between atoms: _381  and  _383
REMARK  153  A    between atoms: _383  and  _384
REMARK  154  A    between atoms: _383  and  _386
REMARK  155  A    between atoms: _386  and  _387
REMARK  156  A    between atoms: _387  and  _388
REMARK  157  A    between atoms: _391  and  _393
REMARK  158  A    between atoms: _393  and  _394
REMARK  159  A    between atoms: _393  and  _396
REMARK  160  A    between atoms: _396  and  _397
REMARK  161  A    between atoms: _404  and  _405
REMARK  162  A    between atoms: _410  and  _412
REMARK  163  A    between atoms: _412  and  _413
REMARK  164  A    between atoms: _412  and  _415
REMARK  165  A    between atoms: _415  and  _416
REMARK  166  A    between atoms: _422  and  _424
REMARK  167  A    between atoms: _424  and  _425
REMARK  168  A    between atoms: _424  and  _427
REMARK  169  A    between atoms: _427  and  _428
REMARK  170  A    between atoms: _431  and  _433
REMARK  171  A    between atoms: _433  and  _434
REMARK  172  A    between atoms: _433  and  _436
REMARK  173  A    between atoms: _436  and  _437
REMARK  174  A    between atoms: _437  and  _438
REMARK  175  A    between atoms: _438  and  _439
REMARK  176  A    between atoms: _439  and  _440
REMARK  177  A    between atoms: _444  and  _446
REMARK  178  A    between atoms: _446  and  _447
REMARK  179  A    between atoms: _446  and  _449
REMARK  180  A    between atoms: _449  and  _450
REMARK  181  A    between atoms: _453  and  _455
REMARK  182  A    between atoms: _455  and  _456
REMARK  183  A    between atoms: _455  and  _458
REMARK  184  A    between atoms: _461  and  _463
REMARK  185  A    between atoms: _463  and  _464
REMARK  186  A    between atoms: _463  and  _466
REMARK  187  A    between atoms: _469  and  _471
REMARK  188  A    between atoms: _471  and  _472
REMARK  189  A    between atoms: _471  and  _474
REMARK  190  A    between atoms: _474  and  _475
REMARK  191  A    between atoms: _478  and  _480
REMARK  192  A    between atoms: _480  and  _481
REMARK  193  A    between atoms: _480  and  _483
REMARK  194  A    between atoms: _483  and  _484
REMARK  195  A    between atoms: _487  and  _489
REMARK  196  A    between atoms: _489  and  _490
REMARK  197  A    between atoms: _489  and  _492
REMARK  198  A    between atoms: _492  and  _493
REMARK  199  A    between atoms: _496  and  _498
REMARK  200  A    between atoms: _498  and  _499
REMARK  201  A    between atoms: _498  and  _501
REMARK  202  A    between atoms: _501  and  _502
REMARK  203  A    between atoms: _506  and  _507
REMARK  204  A    between atoms: _512  and  _514
REMARK  205  A    between atoms: _514  and  _515
REMARK  206  A    between atoms: _514  and  _517
REMARK  207  A    between atoms: _517  and  _518
REMARK  208  A    between atoms: _521  and  _523
REMARK  209  A    between atoms: _523  and  _524
REMARK  210  A    between atoms: _523  and  _526
REMARK  211  A    between atoms: _529  and  _531
REMARK  212  A    between atoms: _531  and  _532
REMARK  213  A    between atoms: _535  and  _537
REMARK  214  A    between atoms: _537  and  _538
REMARK  215  A    between atoms: _537  and  _540
REMARK  216  A    between atoms: _540  and  _541
REMARK  217  A    between atoms: _546  and  _547
REMARK  218  A    between atoms: _549  and  _551
REMARK  219  A    between atoms: _551  and  _552
REMARK  220  A    between atoms: _551  and  _554
REMARK  221  A    between atoms: _554  and  _555
REMARK  222  A    between atoms: _557  and  _559
REMARK  223  A    between atoms: _559  and  _560
REMARK  224  A    between atoms: _559  and  _562
REMARK  225  A    between atoms: _562  and  _563
REMARK  226  A    between atoms: _565  and  _567
REMARK  227  A    between atoms: _567  and  _568
REMARK  228  A    between atoms: _567  and  _570
REMARK  229  A    between atoms: _574  and  _575
REMARK  230  A    between atoms: _580  and  _582
REMARK  231  A    between atoms: _582  and  _583
REMARK  232  A    between atoms: _582  and  _585
REMARK  233  A    between atoms: _585  and  _586
REMARK  234  A    between atoms: _591  and  _592
REMARK  235  A    between atoms: _594  and  _596
REMARK  236  A    between atoms: _596  and  _597
REMARK  237  A    between atoms: _596  and  _599
REMARK  238  A    between atoms: _599  and  _600
REMARK  239  A    between atoms: _600  and  _601
REMARK  240  A    between atoms: _601  and  _602
REMARK  241  A    between atoms: _611  and  _613
REMARK  242  A    between atoms: _613  and  _614
REMARK  243  A    between atoms: _613  and  _616
REMARK  244  A    between atoms: _616  and  _617
REMARK  245  A    between atoms: _617  and  _618
REMARK  246  A    between atoms: _620  and  _622
REMARK  247  A    between atoms: _622  and  _623
REMARK  248  A    between atoms: _622  and  _625
REMARK  249  A    between atoms: _628  and  _630
REMARK  250  A    between atoms: _630  and  _631
REMARK  251  A    between atoms: _630  and  _633
REMARK  252  A    between atoms: _633  and  _634
REMARK                            x       y       z     vdW  Elec       q    Type
REMARK                         _______ _______ _______ _____ _____    ______ ____
ROOT
ATOM      1  O   HOH     1      33.186  87.726  -4.342  0.00  0.00    +0.000 OA
ENDROOT
TORSDOF 0
REMARK  Name = ../refined-set-2016/3fh7/3fh7_pocket.pdb
REMARK  252 active torsions:
REMARK  status: ('A' for Active; 'I' for Inactive)
REMARK    1  A    between atoms: _1  and  _3
REMARK    2  A    between atoms: _3  and  _4
REMARK    3  A    between atoms: _3  and  _6
REMARK    4  A    between atoms: _8  and  _10
REMARK    5  A    between atoms: _10  and  _11
REMARK    6  A    between atoms: _10  and  _13
REMARK    7  A    between atoms: _13  and  _14
REMARK    8  A    between atoms: _16  and  _18
REMARK    9  A    between atoms: _18  and  _19
REMARK   10  A    between atoms: _18  and  _21
REMARK   11  A    between atoms: _21  and  _22
REMARK   12  A    between atoms: _22  and  _23
REMARK   13  A    between atoms: _28  and  _30
REMARK   14  A    between atoms: _30  and  _31
REMARK   15  A    between atoms: _30  and  _33
REMARK   16  A    between atoms: _35  and  _37
REMARK   17  A    between atoms: _37  and  _38
REMARK   18  A    between atoms: _37  and  _40
REMARK   19  A    between atoms: _40  and  _41
REMARK   20  A    between atoms: _41  and  _42
REMARK   21  A    between atoms: _47  and  _49
REMARK   22  A    between atoms: _49  and  _50
REMARK   23  A    between atoms: _53  and  _55
REMARK   24  A    between atoms: _55  and  _56
REMARK   25  A    between atoms: _55  and  _58
REMARK   26  A    between atoms: _58  and  _59
REMARK   27  A    between atoms: _62  and  _64
REMARK   28  A    between atoms: _64  and  _65
REMARK   29  A    between atoms: _64  and  _67
REMARK   30  A    between atoms: _67  and  _68
REMARK   31  A    between atoms: _73  and  _75
REMARK   32  A    between atoms: _75  and  _76
REMARK   33  A    between atoms: _75  and  _78
REMARK   34  A    between atoms: _78  and  _79
REMARK   35  A    between atoms: _84  and  _85
REMARK   36  A    between atoms: _87  and  _89
REMARK   37  A    between atoms: _89  and  _90
REMARK   38  A    between atoms: _89  and  _92
REMARK   39  A    between atoms: _92  and  _93
REMARK   40  A    between atoms: _100  and  _101
REMARK   41  A    between atoms: _106  and  _108
REMARK   42  A    between atoms: _108  and  _109
REMARK   43  A    between atoms: _108  and  _111
REMARK   44  A    between atoms: _111  and  _112
REMARK   45  A    between atoms: _117  and  _118
REMARK   46  A    between atoms: _120  and  _122
REMARK   47  A    between atoms: _122  and  _123
REMARK   48  A    between atoms: _125  and  _127
REMARK   49  A    between atoms: _127  and  _128
REMARK   50  A    between atoms: _130  and  _132
REMARK   51  A    between atoms: _132  and  _133
REMARK   52  A    between atoms: _132  and  _135
REMARK   53  A    between atoms: _135  and  _136
REMARK   54  A    between atoms: _136  and  _137
REMARK   55  A    between atoms: _139  and  _141
REMARK   56  A    between atoms: _141  and  _142
REMARK   57  A    between atoms: _141  and  _144
REMARK   58  A    between atoms: _144  and  _145
REMARK   59  A    between atoms: _145  and  _146
REMARK   60  A    between atoms: _149  and  _151
REMARK   61  A    between atoms: _151  and  _152
REMARK   62  A    between atoms: _151  and  _154
REMARK   63  A    between atoms: _154  and  _155
REMARK   64  A    between atoms: _160  and  _162
REMARK   65  A    between atoms: _162  and  _163
REMARK   66  A    between atoms: _162  and  _165
REMARK   67  A    between atoms: _165  and  _166
REMARK   68  A    between atoms: _169  and  _171
REMARK   69  A    between atoms: _171  and  _172
REMARK   70  A    between atoms: _171  and  _174
REMARK   71  A    between atoms: _174  and  _175
REMARK   72  A    between atoms: _181  and  _183
REMARK   73  A    between atoms: _183  and  _184
REMARK   74  A    between atoms: _183  and  _186
REMARK   75  A    between atoms: _189  and  _191
REMARK   76  A    between atoms: _191  and  _192
REMARK   77  A    between atoms: _191  and  _194
REMARK   78  A    between atoms: _194  and  _195
REMARK   79  A    between atoms: _199  and  ZN_637
REMARK   80  A    between atoms: _200  and  _202
REMARK   81  A    between atoms: _202  and  _203
REMARK   82  A    between atoms: _202  and  _205
REMARK   83  A    between atoms: _205  and  _206
REMARK   84  A    between atoms: _206  and  _207
REMARK   85  A    between atoms: _210  and  _212
REMARK   86  A    between atoms: _212  and  _213
REMARK   87  A    between atoms: _212  and  _215
REMARK   88  A    between atoms: _215  and  _216
REMARK   89  A    between atoms: _219  and  _221
REMARK   90  A    between atoms: _221  and  _222
REMARK   91  A    between atoms: _221  and  _224
REMARK   92  A    between atoms: _224  and  _225
REMARK   93  A    between atoms: _229  and  ZN_637
REMARK   94  A    between atoms: _230  and  _232
REMARK   95  A    between atoms: _232  and  _233
REMARK   96  A    between atoms: _232  and  _235
REMARK   97  A    between atoms: _235  and  _236
REMARK   98  A    between atoms: _239  and  _241
REMARK   99  A    between atoms: _241  and  _242
REMARK  100  A    between atoms: _241  and  _244
REMARK  101  A    between atoms: _244  and  _245
REMARK  102  A    between atoms: _250  and  _252
REMARK  103  A    between atoms: _252  and  _253
REMARK  104  A    between atoms: _252  and  _255
REMARK  105  A    between atoms: _255  and  _256
REMARK  106  A    between atoms: _261  and  _263
REMARK  107  A    between atoms: _263  and  _264
REMARK  108  A    between atoms: _263  and  _266
REMARK  109  A    between atoms: _266  and  _267
REMARK  110  A    between atoms: _270  and  _272
REMARK  111  A    between atoms: _272  and  _273
REMARK  112  A    between atoms: _272  and  _275
REMARK  113  A    between atoms: _275  and  _276
REMARK  114  A    between atoms: _286  and  _288
REMARK  115  A    between atoms: _288  and  _289
REMARK  116  A    between atoms: _288  and  _291
REMARK  117  A    between atoms: _291  and  _292
REMARK  118  A    between atoms: _295  and  _297
REMARK  119  A    between atoms: _297  and  _298
REMARK  120  A    between atoms: _297  and  _300
REMARK  121  A    between atoms: _300  and  _301
REMARK  122  A    between atoms: _306  and  _308
REMARK  123  A    between atoms: _308  and  _309
REMARK  124  A    between atoms: _308  and  _311
REMARK  125  A    between atoms: _311  and  _312
REMARK  126  A    between atoms: _318  and  _320
REMARK  127  A    between atoms: _320  and  _321
REMARK  128  A    between atoms: _320  and  _323
REMARK  129  A    between atoms: _323  and  _324
REMARK  130  A    between atoms: _334  and  _336
REMARK  131  A    between atoms: _336  and  _337
REMARK  132  A    between atoms: _336  and  _339
REMARK  133  A    between atoms: _339  and  _340
REMARK  134  A    between atoms: _343  and  _345
REMARK  135  A    between atoms: _345  and  _346
REMARK  136  A    between atoms: _345  and  _348
REMARK  137  A    between atoms: _348  and  _349
REMARK  138  A    between atoms: _354  and  _356
REMARK  139  A    between atoms: _356  and  _357
REMARK  140  A    between atoms: _356  and  _359
REMARK  141  A    between atoms: _359  and  _360
REMARK  142  A    between atoms: _360  and  _361
REMARK  143  A    between atoms: _361  and  _362
REMARK  144  A    between atoms: _362  and  ZN_637
REMARK  145  A    between atoms: _364  and  _366
REMARK  146  A    between atoms: _366  and  _367
REMARK  147  A    between atoms: _366  and  _369
REMARK  148  A    between atoms: _369  and  _370
REMARK  149  A    between atoms: _373  and  _375
REMARK  150  A    between atoms: _375  and  _376
REMARK  151  A    between atoms: _375  and  _378
REMARK  152  A    between atoms: _381  and  _383
REMARK  153  A    between atoms: _383  and  _384
REMARK  154  A    between atoms: _383  and  _386
REMARK  155  A    between atoms: _386  and  _387
REMARK  156  A    between atoms: _387  and  _388
REMARK  157  A    between atoms: _391  and  _393
REMARK  158  A    between atoms: _393  and  _394
REMARK  159  A    between atoms: _393  and  _396
REMARK  160  A    between atoms: _396  and  _397
REMARK  161  A    between atoms: _404  and  _405
REMARK  162  A    between atoms: _410  and  _412
REMARK  163  A    between atoms: _412  and  _413
REMARK  164  A    between atoms: _412  and  _415
REMARK  165  A    between atoms: _415  and  _416
REMARK  166  A    between atoms: _422  and  _424
REMARK  167  A    between atoms: _424  and  _425
REMARK  168  A    between atoms: _424  and  _427
REMARK  169  A    between atoms: _427  and  _428
REMARK  170  A    between atoms: _431  and  _433
REMARK  171  A    between atoms: _433  and  _434
REMARK  172  A    between atoms: _433  and  _436
REMARK  173  A    between atoms: _436  and  _437
REMARK  174  A    between atoms: _437  and  _438
REMARK  175  A    between atoms: _438  and  _439
REMARK  176  A    between atoms: _439  and  _440
REMARK  177  A    between atoms: _444  and  _446
REMARK  178  A    between atoms: _446  and  _447
REMARK  179  A    between atoms: _446  and  _449
REMARK  180  A    between atoms: _449  and  _450
REMARK  181  A    between atoms: _453  and  _455
REMARK  182  A    between atoms: _455  and  _456
REMARK  183  A    between atoms: _455  and  _458
REMARK  184  A    between atoms: _461  and  _463
REMARK  185  A    between atoms: _463  and  _464
REMARK  186  A    between atoms: _463  and  _466
REMARK  187  A    between atoms: _469  and  _471
REMARK  188  A    between atoms: _471  and  _472
REMARK  189  A    between atoms: _471  and  _474
REMARK  190  A    between atoms: _474  and  _475
REMARK  191  A    between atoms: _478  and  _480
REMARK  192  A    between atoms: _480  and  _481
REMARK  193  A    between atoms: _480  and  _483
REMARK  194  A    between atoms: _483  and  _484
REMARK  195  A    between atoms: _487  and  _489
REMARK  196  A    between atoms: _489  and  _490
REMARK  197  A    between atoms: _489  and  _492
REMARK  198  A    between atoms: _492  and  _493
REMARK  199  A    between atoms: _496  and  _498
REMARK  200  A    between atoms: _498  and  _499
REMARK  201  A    between atoms: _498  and  _501
REMARK  202  A    between atoms: _501  and  _502
REMARK  203  A    between atoms: _506  and  _507
REMARK  204  A    between atoms: _512  and  _514
REMARK  205  A    between atoms: _514  and  _515
REMARK  206  A    between atoms: _514  and  _517
REMARK  207  A    between atoms: _517  and  _518
REMARK  208  A    between atoms: _521  and  _523
REMARK  209  A    between atoms: _523  and  _524
REMARK  210  A    between atoms: _523  and  _526
REMARK  211  A    between atoms: _529  and  _531
REMARK  212  A    between atoms: _531  and  _532
REMARK  213  A    between atoms: _535  and  _537
REMARK  214  A    between atoms: _537  and  _538
REMARK  215  A    between atoms: _537  and  _540
REMARK  216  A    between atoms: _540  and  _541
REMARK  217  A    between atoms: _546  and  _547
REMARK  218  A    between atoms: _549  and  _551
REMARK  219  A    between atoms: _551  and  _552
REMARK  220  A    between atoms: _551  and  _554
REMARK  221  A    between atoms: _554  and  _555
REMARK  222  A    between atoms: _557  and  _559
REMARK  223  A    between atoms: _559  and  _560
REMARK  224  A    between atoms: _559  and  _562
REMARK  225  A    between atoms: _562  and  _563
REMARK  226  A    between atoms: _565  and  _567
REMARK  227  A    between atoms: _567  and  _568
REMARK  228  A    between atoms: _567  and  _570
REMARK  229  A    between atoms: _574  and  _575
REMARK  230  A    between atoms: _580  and  _582
REMARK  231  A    between atoms: _582  and  _583
REMARK  232  A    between atoms: _582  and  _585
REMARK  233  A    between atoms: _585  and  _586
REMARK  234  A    between atoms: _591  and  _592
REMARK  235  A    between atoms: _594  and  _596
REMARK  236  A    between atoms: _596  and  _597
REMARK  237  A    between atoms: _596  and  _599
REMARK  238  A    between atoms: _599  and  _600
REMARK  239  A    between atoms: _600  and  _601
REMARK  240  A    between atoms: _601  and  _602
REMARK  241  A    between atoms: _611  and  _613
REMARK  242  A    between atoms: _613  and  _614
REMARK  243  A    between atoms: _613  and  _616
REMARK  244  A    between atoms: _616  and  _617
REMARK  245  A    between atoms: _617  and  _618
REMARK  246  A    between atoms: _620  and  _622
REMARK  247  A    between atoms: _622  and  _623
REMARK  248  A    between atoms: _622  and  _625
REMARK  249  A    between atoms: _628  and  _630
REMARK  250  A    between atoms: _630  and  _631
REMARK  251  A    between atoms: _630  and  _633
REMARK  252  A    between atoms: _633  and  _634
REMARK                            x       y       z     vdW  Elec       q    Type
REMARK                         _______ _______ _______ _____ _____    ______ ____
ROOT
ATOM      1  O   HOH     1      36.455  90.764   3.436  0.00  0.00    +0.000 OA
ENDROOT
TORSDOF 0
REMARK  Name = ../refined-set-2016/3fh7/3fh7_pocket.pdb
REMARK  252 active torsions:
REMARK  status: ('A' for Active; 'I' for Inactive)
REMARK    1  A    between atoms: _1  and  _3
REMARK    2  A    between atoms: _3  and  _4
REMARK    3  A    between atoms: _3  and  _6
REMARK    4  A    between atoms: _8  and  _10
REMARK    5  A    between atoms: _10  and  _11
REMARK    6  A    between atoms: _10  and  _13
REMARK    7  A    between atoms: _13  and  _14
REMARK    8  A    between atoms: _16  and  _18
REMARK    9  A    between atoms: _18  and  _19
REMARK   10  A    between atoms: _18  and  _21
REMARK   11  A    between atoms: _21  and  _22
REMARK   12  A    between atoms: _22  and  _23
REMARK   13  A    between atoms: _28  and  _30
REMARK   14  A    between atoms: _30  and  _31
REMARK   15  A    between atoms: _30  and  _33
REMARK   16  A    between atoms: _35  and  _37
REMARK   17  A    between atoms: _37  and  _38
REMARK   18  A    between atoms: _37  and  _40
REMARK   19  A    between atoms: _40  and  _41
REMARK   20  A    between atoms: _41  and  _42
REMARK   21  A    between atoms: _47  and  _49
REMARK   22  A    between atoms: _49  and  _50
REMARK   23  A    between atoms: _53  and  _55
REMARK   24  A    between atoms: _55  and  _56
REMARK   25  A    between atoms: _55  and  _58
REMARK   26  A    between atoms: _58  and  _59
REMARK   27  A    between atoms: _62  and  _64
REMARK   28  A    between atoms: _64  and  _65
REMARK   29  A    between atoms: _64  and  _67
REMARK   30  A    between atoms: _67  and  _68
REMARK   31  A    between atoms: _73  and  _75
REMARK   32  A    between atoms: _75  and  _76
REMARK   33  A    between atoms: _75  and  _78
REMARK   34  A    between atoms: _78  and  _79
REMARK   35  A    between atoms: _84  and  _85
REMARK   36  A    between atoms: _87  and  _89
REMARK   37  A    between atoms: _89  and  _90
REMARK   38  A    between atoms: _89  and  _92
REMARK   39  A    between atoms: _92  and  _93
REMARK   40  A    between atoms: _100  and  _101
REMARK   41  A    between atoms: _106  and  _108
REMARK   42  A    between atoms: _108  and  _109
REMARK   43  A    between atoms: _108  and  _111
REMARK   44  A    between atoms: _111  and  _112
REMARK   45  A    between atoms: _117  and  _118
REMARK   46  A    between atoms: _120  and  _122
REMARK   47  A    between atoms: _122  and  _123
REMARK   48  A    between atoms: _125  and  _127
REMARK   49  A    between atoms: _127  and  _128
REMARK   50  A    between atoms: _130  and  _132
REMARK   51  A    between atoms: _132  and  _133
REMARK   52  A    between atoms: _132  and  _135
REMARK   53  A    between atoms: _135  and  _136
REMARK   54  A    between atoms: _136  and  _137
REMARK   55  A    between atoms: _139  and  _141
REMARK   56  A    between atoms: _141  and  _142
REMARK   57  A    between atoms: _141  and  _144
REMARK   58  A    between atoms: _144  and  _145
REMARK   59  A    between atoms: _145  and  _146
REMARK   60  A    between atoms: _149  and  _151
REMARK   61  A    between atoms: _151  and  _152
REMARK   62  A    between atoms: _151  and  _154
REMARK   63  A    between atoms: _154  and  _155
REMARK   64  A    between atoms: _160  and  _162
REMARK   65  A    between atoms: _162  and  _163
REMARK   66  A    between atoms: _162  and  _165
REMARK   67  A    between atoms: _165  and  _166
REMARK   68  A    between atoms: _169  and  _171
REMARK   69  A    between atoms: _171  and  _172
REMARK   70  A    between atoms: _171  and  _174
REMARK   71  A    between atoms: _174  and  _175
REMARK   72  A    between atoms: _181  and  _183
REMARK   73  A    between atoms: _183  and  _184
REMARK   74  A    between atoms: _183  and  _186
REMARK   75  A    between atoms: _189  and  _191
REMARK   76  A    between atoms: _191  and  _192
REMARK   77  A    between atoms: _191  and  _194
REMARK   78  A    between atoms: _194  and  _195
REMARK   79  A    between atoms: _199  and  ZN_637
REMARK   80  A    between atoms: _200  and  _202
REMARK   81  A    between atoms: _202  and  _203
REMARK   82  A    between atoms: _202  and  _205
REMARK   83  A    between atoms: _205  and  _206
REMARK   84  A    between atoms: _206  and  _207
REMARK   85  A    between atoms: _210  and  _212
REMARK   86  A    between atoms: _212  and  _213
REMARK   87  A    between atoms: _212  and  _215
REMARK   88  A    between atoms: _215  and  _216
REMARK   89  A    between atoms: _219  and  _221
REMARK   90  A    between atoms: _221  and  _222
REMARK   91  A    between atoms: _221  and  _224
REMARK   92  A    between atoms: _224  and  _225
REMARK   93  A    between atoms: _229  and  ZN_637
REMARK   94  A    between atoms: _230  and  _232
REMARK   95  A    between atoms: _232  and  _233
REMARK   96  A    between atoms: _232  and  _235
REMARK   97  A    between atoms: _235  and  _236
REMARK   98  A    between atoms: _239  and  _241
REMARK   99  A    between atoms: _241  and  _242
REMARK  100  A    between atoms: _241  and  _244
REMARK  101  A    between atoms: _244  and  _245
REMARK  102  A    between atoms: _250  and  _252
REMARK  103  A    between atoms: _252  and  _253
REMARK  104  A    between atoms: _252  and  _255
REMARK  105  A    between atoms: _255  and  _256
REMARK  106  A    between atoms: _261  and  _263
REMARK  107  A    between atoms: _263  and  _264
REMARK  108  A    between atoms: _263  and  _266
REMARK  109  A    between atoms: _266  and  _267
REMARK  110  A    between atoms: _270  and  _272
REMARK  111  A    between atoms: _272  and  _273
REMARK  112  A    between atoms: _272  and  _275
REMARK  113  A    between atoms: _275  and  _276
REMARK  114  A    between atoms: _286  and  _288
REMARK  115  A    between atoms: _288  and  _289
REMARK  116  A    between atoms: _288  and  _291
REMARK  117  A    between atoms: _291  and  _292
REMARK  118  A    between atoms: _295  and  _297
REMARK  119  A    between atoms: _297  and  _298
REMARK  120  A    between atoms: _297  and  _300
REMARK  121  A    between atoms: _300  and  _301
REMARK  122  A    between atoms: _306  and  _308
REMARK  123  A    between atoms: _308  and  _309
REMARK  124  A    between atoms: _308  and  _311
REMARK  125  A    between atoms: _311  and  _312
REMARK  126  A    between atoms: _318  and  _320
REMARK  127  A    between atoms: _320  and  _321
REMARK  128  A    between atoms: _320  and  _323
REMARK  129  A    between atoms: _323  and  _324
REMARK  130  A    between atoms: _334  and  _336
REMARK  131  A    between atoms: _336  and  _337
REMARK  132  A    between atoms: _336  and  _339
REMARK  133  A    between atoms: _339  and  _340
REMARK  134  A    between atoms: _343  and  _345
REMARK  135  A    between atoms: _345  and  _346
REMARK  136  A    between atoms: _345  and  _348
REMARK  137  A    between atoms: _348  and  _349
REMARK  138  A    between atoms: _354  and  _356
REMARK  139  A    between atoms: _356  and  _357
REMARK  140  A    between atoms: _356  and  _359
REMARK  141  A    between atoms: _359  and  _360
REMARK  142  A    between atoms: _360  and  _361
REMARK  143  A    between atoms: _361  and  _362
REMARK  144  A    between atoms: _362  and  ZN_637
REMARK  145  A    between atoms: _364  and  _366
REMARK  146  A    between atoms: _366  and  _367
REMARK  147  A    between atoms: _366  and  _369
REMARK  148  A    between atoms: _369  and  _370
REMARK  149  A    between atoms: _373  and  _375
REMARK  150  A    between atoms: _375  and  _376
REMARK  151  A    between atoms: _375  and  _378
REMARK  152  A    between atoms: _381  and  _383
REMARK  153  A    between atoms: _383  and  _384
REMARK  154  A    between atoms: _383  and  _386
REMARK  155  A    between atoms: _386  and  _387
REMARK  156  A    between atoms: _387  and  _388
REMARK  157  A    between atoms: _391  and  _393
REMARK  158  A    between atoms: _393  and  _394
REMARK  159  A    between atoms: _393  and  _396
REMARK  160  A    between atoms: _396  and  _397
REMARK  161  A    between atoms: _404  and  _405
REMARK  162  A    between atoms: _410  and  _412
REMARK  163  A    between atoms: _412  and  _413
REMARK  164  A    between atoms: _412  and  _415
REMARK  165  A    between atoms: _415  and  _416
REMARK  166  A    between atoms: _422  and  _424
REMARK  167  A    between atoms: _424  and  _425
REMARK  168  A    between atoms: _424  and  _427
REMARK  169  A    between atoms: _427  and  _428
REMARK  170  A    between atoms: _431  and  _433
REMARK  171  A    between atoms: _433  and  _434
REMARK  172  A    between atoms: _433  and  _436
REMARK  173  A    between atoms: _436  and  _437
REMARK  174  A    between atoms: _437  and  _438
REMARK  175  A    between atoms: _438  and  _439
REMARK  176  A    between atoms: _439  and  _440
REMARK  177  A    between atoms: _444  and  _446
REMARK  178  A    between atoms: _446  and  _447
REMARK  179  A    between atoms: _446  and  _449
REMARK  180  A    between atoms: _449  and  _450
REMARK  181  A    between atoms: _453  and  _455
REMARK  182  A    between atoms: _455  and  _456
REMARK  183  A    between atoms: _455  and  _458
REMARK  184  A    between atoms: _461  and  _463
REMARK  185  A    between atoms: _463  and  _464
REMARK  186  A    between atoms: _463  and  _466
REMARK  187  A    between atoms: _469  and  _471
REMARK  188  A    between atoms: _471  and  _472
REMARK  189  A    between atoms: _471  and  _474
REMARK  190  A    between atoms: _474  and  _475
REMARK  191  A    between atoms: _478  and  _480
REMARK  192  A    between atoms: _480  and  _481
REMARK  193  A    between atoms: _480  and  _483
REMARK  194  A    between atoms: _483  and  _484
REMARK  195  A    between atoms: _487  and  _489
REMARK  196  A    between atoms: _489  and  _490
REMARK  197  A    between atoms: _489  and  _492
REMARK  198  A    between atoms: _492  and  _493
REMARK  199  A    between atoms: _496  and  _498
REMARK  200  A    between atoms: _498  and  _499
REMARK  201  A    between atoms: _498  and  _501
REMARK  202  A    between atoms: _501  and  _502
REMARK  203  A    between atoms: _506  and  _507
REMARK  204  A    between atoms: _512  and  _514
REMARK  205  A    between atoms: _514  and  _515
REMARK  206  A    between atoms: _514  and  _517
REMARK  207  A    between atoms: _517  and  _518
REMARK  208  A    between atoms: _521  and  _523
REMARK  209  A    between atoms: _523  and  _524
REMARK  210  A    between atoms: _523  and  _526
REMARK  211  A    between atoms: _529  and  _531
REMARK  212  A    between atoms: _531  and  _532
REMARK  213  A    between atoms: _535  and  _537
REMARK  214  A    between atoms: _537  and  _538
REMARK  215  A    between atoms: _537  and  _540
REMARK  216  A    between atoms: _540  and  _541
REMARK  217  A    between atoms: _546  and  _547
REMARK  218  A    between atoms: _549  and  _551
REMARK  219  A    between atoms: _551  and  _552
REMARK  220  A    between atoms: _551  and  _554
REMARK  221  A    between atoms: _554  and  _555
REMARK  222  A    between atoms: _557  and  _559
REMARK  223  A    between atoms: _559  and  _560
REMARK  224  A    between atoms: _559  and  _562
REMARK  225  A    between atoms: _562  and  _563
REMARK  226  A    between atoms: _565  and  _567
REMARK  227  A    between atoms: _567  and  _568
REMARK  228  A    between atoms: _567  and  _570
REMARK  229  A    between atoms: _574  and  _575
REMARK  230  A    between atoms: _580  and  _582
REMARK  231  A    between atoms: _582  and  _583
REMARK  232  A    between atoms: _582  and  _585
REMARK  233  A    between atoms: _585  and  _586
REMARK  234  A    between atoms: _591  and  _592
REMARK  235  A    between atoms: _594  and  _596
REMARK  236  A    between atoms: _596  and  _597
REMARK  237  A    between atoms: _596  and  _599
REMARK  238  A    between atoms: _599  and  _600
REMARK  239  A    between atoms: _600  and  _601
REMARK  240  A    between atoms: _601  and  _602
REMARK  241  A    between atoms: _611  and  _613
REMARK  242  A    between atoms: _613  and  _614
REMARK  243  A    between atoms: _613  and  _616
REMARK  244  A    between atoms: _616  and  _617
REMARK  245  A    between atoms: _617  and  _618
REMARK  246  A    between atoms: _620  and  _622
REMARK  247  A    between atoms: _622  and  _623
REMARK  248  A    between atoms: _622  and  _625
REMARK  249  A    between atoms: _628  and  _630
REMARK  250  A    between atoms: _630  and  _631
REMARK  251  A    between atoms: _630  and  _633
REMARK  252  A    between atoms: _633  and  _634
REMARK                            x       y       z     vdW  Elec       q    Type
REMARK                         _______ _______ _______ _____ _____    ______ ____
ROOT
ATOM      1  O   HOH     1      32.273  77.578   3.779  0.00  0.00    +0.000 OA
ENDROOT
TORSDOF 0
REMARK  Name = ../refined-set-2016/3fh7/3fh7_pocket.pdb
REMARK  252 active torsions:
REMARK  status: ('A' for Active; 'I' for Inactive)
REMARK    1  A    between atoms: _1  and  _3
REMARK    2  A    between atoms: _3  and  _4
REMARK    3  A    between atoms: _3  and  _6
REMARK    4  A    between atoms: _8  and  _10
REMARK    5  A    between atoms: _10  and  _11
REMARK    6  A    between atoms: _10  and  _13
REMARK    7  A    between atoms: _13  and  _14
REMARK    8  A    between atoms: _16  and  _18
REMARK    9  A    between atoms: _18  and  _19
REMARK   10  A    between atoms: _18  and  _21
REMARK   11  A    between atoms: _21  and  _22
REMARK   12  A    between atoms: _22  and  _23
REMARK   13  A    between atoms: _28  and  _30
REMARK   14  A    between atoms: _30  and  _31
REMARK   15  A    between atoms: _30  and  _33
REMARK   16  A    between atoms: _35  and  _37
REMARK   17  A    between atoms: _37  and  _38
REMARK   18  A    between atoms: _37  and  _40
REMARK   19  A    between atoms: _40  and  _41
REMARK   20  A    between atoms: _41  and  _42
REMARK   21  A    between atoms: _47  and  _49
REMARK   22  A    between atoms: _49  and  _50
REMARK   23  A    between atoms: _53  and  _55
REMARK   24  A    between atoms: _55  and  _56
REMARK   25  A    between atoms: _55  and  _58
REMARK   26  A    between atoms: _58  and  _59
REMARK   27  A    between atoms: _62  and  _64
REMARK   28  A    between atoms: _64  and  _65
REMARK   29  A    between atoms: _64  and  _67
REMARK   30  A    between atoms: _67  and  _68
REMARK   31  A    between atoms: _73  and  _75
REMARK   32  A    between atoms: _75  and  _76
REMARK   33  A    between atoms: _75  and  _78
REMARK   34  A    between atoms: _78  and  _79
REMARK   35  A    between atoms: _84  and  _85
REMARK   36  A    between atoms: _87  and  _89
REMARK   37  A    between atoms: _89  and  _90
REMARK   38  A    between atoms: _89  and  _92
REMARK   39  A    between atoms: _92  and  _93
REMARK   40  A    between atoms: _100  and  _101
REMARK   41  A    between atoms: _106  and  _108
REMARK   42  A    between atoms: _108  and  _109
REMARK   43  A    between atoms: _108  and  _111
REMARK   44  A    between atoms: _111  and  _112
REMARK   45  A    between atoms: _117  and  _118
REMARK   46  A    between atoms: _120  and  _122
REMARK   47  A    between atoms: _122  and  _123
REMARK   48  A    between atoms: _125  and  _127
REMARK   49  A    between atoms: _127  and  _128
REMARK   50  A    between atoms: _130  and  _132
REMARK   51  A    between atoms: _132  and  _133
REMARK   52  A    between atoms: _132  and  _135
REMARK   53  A    between atoms: _135  and  _136
REMARK   54  A    between atoms: _136  and  _137
REMARK   55  A    between atoms: _139  and  _141
REMARK   56  A    between atoms: _141  and  _142
REMARK   57  A    between atoms: _141  and  _144
REMARK   58  A    between atoms: _144  and  _145
REMARK   59  A    between atoms: _145  and  _146
REMARK   60  A    between atoms: _149  and  _151
REMARK   61  A    between atoms: _151  and  _152
REMARK   62  A    between atoms: _151  and  _154
REMARK   63  A    between atoms: _154  and  _155
REMARK   64  A    between atoms: _160  and  _162
REMARK   65  A    between atoms: _162  and  _163
REMARK   66  A    between atoms: _162  and  _165
REMARK   67  A    between atoms: _165  and  _166
REMARK   68  A    between atoms: _169  and  _171
REMARK   69  A    between atoms: _171  and  _172
REMARK   70  A    between atoms: _171  and  _174
REMARK   71  A    between atoms: _174  and  _175
REMARK   72  A    between atoms: _181  and  _183
REMARK   73  A    between atoms: _183  and  _184
REMARK   74  A    between atoms: _183  and  _186
REMARK   75  A    between atoms: _189  and  _191
REMARK   76  A    between atoms: _191  and  _192
REMARK   77  A    between atoms: _191  and  _194
REMARK   78  A    between atoms: _194  and  _195
REMARK   79  A    between atoms: _199  and  ZN_637
REMARK   80  A    between atoms: _200  and  _202
REMARK   81  A    between atoms: _202  and  _203
REMARK   82  A    between atoms: _202  and  _205
REMARK   83  A    between atoms: _205  and  _206
REMARK   84  A    between atoms: _206  and  _207
REMARK   85  A    between atoms: _210  and  _212
REMARK   86  A    between atoms: _212  and  _213
REMARK   87  A    between atoms: _212  and  _215
REMARK   88  A    between atoms: _215  and  _216
REMARK   89  A    between atoms: _219  and  _221
REMARK   90  A    between atoms: _221  and  _222
REMARK   91  A    between atoms: _221  and  _224
REMARK   92  A    between atoms: _224  and  _225
REMARK   93  A    between atoms: _229  and  ZN_637
REMARK   94  A    between atoms: _230  and  _232
REMARK   95  A    between atoms: _232  and  _233
REMARK   96  A    between atoms: _232  and  _235
REMARK   97  A    between atoms: _235  and  _236
REMARK   98  A    between atoms: _239  and  _241
REMARK   99  A    between atoms: _241  and  _242
REMARK  100  A    between atoms: _241  and  _244
REMARK  101  A    between atoms: _244  and  _245
REMARK  102  A    between atoms: _250  and  _252
REMARK  103  A    between atoms: _252  and  _253
REMARK  104  A    between atoms: _252  and  _255
REMARK  105  A    between atoms: _255  and  _256
REMARK  106  A    between atoms: _261  and  _263
REMARK  107  A    between atoms: _263  and  _264
REMARK  108  A    between atoms: _263  and  _266
REMARK  109  A    between atoms: _266  and  _267
REMARK  110  A    between atoms: _270  and  _272
REMARK  111  A    between atoms: _272  and  _273
REMARK  112  A    between atoms: _272  and  _275
REMARK  113  A    between atoms: _275  and  _276
REMARK  114  A    between atoms: _286  and  _288
REMARK  115  A    between atoms: _288  and  _289
REMARK  116  A    between atoms: _288  and  _291
REMARK  117  A    between atoms: _291  and  _292
REMARK  118  A    between atoms: _295  and  _297
REMARK  119  A    between atoms: _297  and  _298
REMARK  120  A    between atoms: _297  and  _300
REMARK  121  A    between atoms: _300  and  _301
REMARK  122  A    between atoms: _306  and  _308
REMARK  123  A    between atoms: _308  and  _309
REMARK  124  A    between atoms: _308  and  _311
REMARK  125  A    between atoms: _311  and  _312
REMARK  126  A    between atoms: _318  and  _320
REMARK  127  A    between atoms: _320  and  _321
REMARK  128  A    between atoms: _320  and  _323
REMARK  129  A    between atoms: _323  and  _324
REMARK  130  A    between atoms: _334  and  _336
REMARK  131  A    between atoms: _336  and  _337
REMARK  132  A    between atoms: _336  and  _339
REMARK  133  A    between atoms: _339  and  _340
REMARK  134  A    between atoms: _343  and  _345
REMARK  135  A    between atoms: _345  and  _346
REMARK  136  A    between atoms: _345  and  _348
REMARK  137  A    between atoms: _348  and  _349
REMARK  138  A    between atoms: _354  and  _356
REMARK  139  A    between atoms: _356  and  _357
REMARK  140  A    between atoms: _356  and  _359
REMARK  141  A    between atoms: _359  and  _360
REMARK  142  A    between atoms: _360  and  _361
REMARK  143  A    between atoms: _361  and  _362
REMARK  144  A    between atoms: _362  and  ZN_637
REMARK  145  A    between atoms: _364  and  _366
REMARK  146  A    between atoms: _366  and  _367
REMARK  147  A    between atoms: _366  and  _369
REMARK  148  A    between atoms: _369  and  _370
REMARK  149  A    between atoms: _373  and  _375
REMARK  150  A    between atoms: _375  and  _376
REMARK  151  A    between atoms: _375  and  _378
REMARK  152  A    between atoms: _381  and  _383
REMARK  153  A    between atoms: _383  and  _384
REMARK  154  A    between atoms: _383  and  _386
REMARK  155  A    between atoms: _386  and  _387
REMARK  156  A    between atoms: _387  and  _388
REMARK  157  A    between atoms: _391  and  _393
REMARK  158  A    between atoms: _393  and  _394
REMARK  159  A    between atoms: _393  and  _396
REMARK  160  A    between atoms: _396  and  _397
REMARK  161  A    between atoms: _404  and  _405
REMARK  162  A    between atoms: _410  and  _412
REMARK  163  A    between atoms: _412  and  _413
REMARK  164  A    between atoms: _412  and  _415
REMARK  165  A    between atoms: _415  and  _416
REMARK  166  A    between atoms: _422  and  _424
REMARK  167  A    between atoms: _424  and  _425
REMARK  168  A    between atoms: _424  and  _427
REMARK  169  A    between atoms: _427  and  _428
REMARK  170  A    between atoms: _431  and  _433
REMARK  171  A    between atoms: _433  and  _434
REMARK  172  A    between atoms: _433  and  _436
REMARK  173  A    between atoms: _436  and  _437
REMARK  174  A    between atoms: _437  and  _438
REMARK  175  A    between atoms: _438  and  _439
REMARK  176  A    between atoms: _439  and  _440
REMARK  177  A    between atoms: _444  and  _446
REMARK  178  A    between atoms: _446  and  _447
REMARK  179  A    between atoms: _446  and  _449
REMARK  180  A    between atoms: _449  and  _450
REMARK  181  A    between atoms: _453  and  _455
REMARK  182  A    between atoms: _455  and  _456
REMARK  183  A    between atoms: _455  and  _458
REMARK  184  A    between atoms: _461  and  _463
REMARK  185  A    between atoms: _463  and  _464
REMARK  186  A    between atoms: _463  and  _466
REMARK  187  A    between atoms: _469  and  _471
REMARK  188  A    between atoms: _471  and  _472
REMARK  189  A    between atoms: _471  and  _474
REMARK  190  A    between atoms: _474  and  _475
REMARK  191  A    between atoms: _478  and  _480
REMARK  192  A    between atoms: _480  and  _481
REMARK  193  A    between atoms: _480  and  _483
REMARK  194  A    between atoms: _483  and  _484
REMARK  195  A    between atoms: _487  and  _489
REMARK  196  A    between atoms: _489  and  _490
REMARK  197  A    between atoms: _489  and  _492
REMARK  198  A    between atoms: _492  and  _493
REMARK  199  A    between atoms: _496  and  _498
REMARK  200  A    between atoms: _498  and  _499
REMARK  201  A    between atoms: _498  and  _501
REMARK  202  A    between atoms: _501  and  _502
REMARK  203  A    between atoms: _506  and  _507
REMARK  204  A    between atoms: _512  and  _514
REMARK  205  A    between atoms: _514  and  _515
REMARK  206  A    between atoms: _514  and  _517
REMARK  207  A    between atoms: _517  and  _518
REMARK  208  A    between atoms: _521  and  _523
REMARK  209  A    between atoms: _523  and  _524
REMARK  210  A    between atoms: _523  and  _526
REMARK  211  A    between atoms: _529  and  _531
REMARK  212  A    between atoms: _531  and  _532
REMARK  213  A    between atoms: _535  and  _537
REMARK  214  A    between atoms: _537  and  _538
REMARK  215  A    between atoms: _537  and  _540
REMARK  216  A    between atoms: _540  and  _541
REMARK  217  A    between atoms: _546  and  _547
REMARK  218  A    between atoms: _549  and  _551
REMARK  219  A    between atoms: _551  and  _552
REMARK  220  A    between atoms: _551  and  _554
REMARK  221  A    between atoms: _554  and  _555
REMARK  222  A    between atoms: _557  and  _559
REMARK  223  A    between atoms: _559  and  _560
REMARK  224  A    between atoms: _559  and  _562
REMARK  225  A    between atoms: _562  and  _563
REMARK  226  A    between atoms: _565  and  _567
REMARK  227  A    between atoms: _567  and  _568
REMARK  228  A    between atoms: _567  and  _570
REMARK  229  A    between atoms: _574  and  _575
REMARK  230  A    between atoms: _580  and  _582
REMARK  231  A    between atoms: _582  and  _583
REMARK  232  A    between atoms: _582  and  _585
REMARK  233  A    between atoms: _585  and  _586
REMARK  234  A    between atoms: _591  and  _592
REMARK  235  A    between atoms: _594  and  _596
REMARK  236  A    between atoms: _596  and  _597
REMARK  237  A    between atoms: _596  and  _599
REMARK  238  A    between atoms: _599  and  _600
REMARK  239  A    between atoms: _600  and  _601
REMARK  240  A    between atoms: _601  and  _602
REMARK  241  A    between atoms: _611  and  _613
REMARK  242  A    between atoms: _613  and  _614
REMARK  243  A    between atoms: _613  and  _616
REMARK  244  A    between atoms: _616  and  _617
REMARK  245  A    between atoms: _617  and  _618
REMARK  246  A    between atoms: _620  and  _622
REMARK  247  A    between atoms: _622  and  _623
REMARK  248  A    between atoms: _622  and  _625
REMARK  249  A    between atoms: _628  and  _630
REMARK  250  A    between atoms: _630  and  _631
REMARK  251  A    between atoms: _630  and  _633
REMARK  252  A    between atoms: _633  and  _634
REMARK                            x       y       z     vdW  Elec       q    Type
REMARK                         _______ _______ _______ _____ _____    ______ ____
ROOT
ATOM      1  O   HOH     1      31.621  87.871   9.150  0.00  0.00    +0.000 OA
ENDROOT
TORSDOF 0
REMARK  Name = ../refined-set-2016/3fh7/3fh7_pocket.pdb
REMARK  252 active torsions:
REMARK  status: ('A' for Active; 'I' for Inactive)
REMARK    1  A    between atoms: _1  and  _3
REMARK    2  A    between atoms: _3  and  _4
REMARK    3  A    between atoms: _3  and  _6
REMARK    4  A    between atoms: _8  and  _10
REMARK    5  A    between atoms: _10  and  _11
REMARK    6  A    between atoms: _10  and  _13
REMARK    7  A    between atoms: _13  and  _14
REMARK    8  A    between atoms: _16  and  _18
REMARK    9  A    between atoms: _18  and  _19
REMARK   10  A    between atoms: _18  and  _21
REMARK   11  A    between atoms: _21  and  _22
REMARK   12  A    between atoms: _22  and  _23
REMARK   13  A    between atoms: _28  and  _30
REMARK   14  A    between atoms: _30  and  _31
REMARK   15  A    between atoms: _30  and  _33
REMARK   16  A    between atoms: _35  and  _37
REMARK   17  A    between atoms: _37  and  _38
REMARK   18  A    between atoms: _37  and  _40
REMARK   19  A    between atoms: _40  and  _41
REMARK   20  A    between atoms: _41  and  _42
REMARK   21  A    between atoms: _47  and  _49
REMARK   22  A    between atoms: _49  and  _50
REMARK   23  A    between atoms: _53  and  _55
REMARK   24  A    between atoms: _55  and  _56
REMARK   25  A    between atoms: _55  and  _58
REMARK   26  A    between atoms: _58  and  _59
REMARK   27  A    between atoms: _62  and  _64
REMARK   28  A    between atoms: _64  and  _65
REMARK   29  A    between atoms: _64  and  _67
REMARK   30  A    between atoms: _67  and  _68
REMARK   31  A    between atoms: _73  and  _75
REMARK   32  A    between atoms: _75  and  _76
REMARK   33  A    between atoms: _75  and  _78
REMARK   34  A    between atoms: _78  and  _79
REMARK   35  A    between atoms: _84  and  _85
REMARK   36  A    between atoms: _87  and  _89
REMARK   37  A    between atoms: _89  and  _90
REMARK   38  A    between atoms: _89  and  _92
REMARK   39  A    between atoms: _92  and  _93
REMARK   40  A    between atoms: _100  and  _101
REMARK   41  A    between atoms: _106  and  _108
REMARK   42  A    between atoms: _108  and  _109
REMARK   43  A    between atoms: _108  and  _111
REMARK   44  A    between atoms: _111  and  _112
REMARK   45  A    between atoms: _117  and  _118
REMARK   46  A    between atoms: _120  and  _122
REMARK   47  A    between atoms: _122  and  _123
REMARK   48  A    between atoms: _125  and  _127
REMARK   49  A    between atoms: _127  and  _128
REMARK   50  A    between atoms: _130  and  _132
REMARK   51  A    between atoms: _132  and  _133
REMARK   52  A    between atoms: _132  and  _135
REMARK   53  A    between atoms: _135  and  _136
REMARK   54  A    between atoms: _136  and  _137
REMARK   55  A    between atoms: _139  and  _141
REMARK   56  A    between atoms: _141  and  _142
REMARK   57  A    between atoms: _141  and  _144
REMARK   58  A    between atoms: _144  and  _145
REMARK   59  A    between atoms: _145  and  _146
REMARK   60  A    between atoms: _149  and  _151
REMARK   61  A    between atoms: _151  and  _152
REMARK   62  A    between atoms: _151  and  _154
REMARK   63  A    between atoms: _154  and  _155
REMARK   64  A    between atoms: _160  and  _162
REMARK   65  A    between atoms: _162  and  _163
REMARK   66  A    between atoms: _162  and  _165
REMARK   67  A    between atoms: _165  and  _166
REMARK   68  A    between atoms: _169  and  _171
REMARK   69  A    between atoms: _171  and  _172
REMARK   70  A    between atoms: _171  and  _174
REMARK   71  A    between atoms: _174  and  _175
REMARK   72  A    between atoms: _181  and  _183
REMARK   73  A    between atoms: _183  and  _184
REMARK   74  A    between atoms: _183  and  _186
REMARK   75  A    between atoms: _189  and  _191
REMARK   76  A    between atoms: _191  and  _192
REMARK   77  A    between atoms: _191  and  _194
REMARK   78  A    between atoms: _194  and  _195
REMARK   79  A    between atoms: _199  and  ZN_637
REMARK   80  A    between atoms: _200  and  _202
REMARK   81  A    between atoms: _202  and  _203
REMARK   82  A    between atoms: _202  and  _205
REMARK   83  A    between atoms: _205  and  _206
REMARK   84  A    between atoms: _206  and  _207
REMARK   85  A    between atoms: _210  and  _212
REMARK   86  A    between atoms: _212  and  _213
REMARK   87  A    between atoms: _212  and  _215
REMARK   88  A    between atoms: _215  and  _216
REMARK   89  A    between atoms: _219  and  _221
REMARK   90  A    between atoms: _221  and  _222
REMARK   91  A    between atoms: _221  and  _224
REMARK   92  A    between atoms: _224  and  _225
REMARK   93  A    between atoms: _229  and  ZN_637
REMARK   94  A    between atoms: _230  and  _232
REMARK   95  A    between atoms: _232  and  _233
REMARK   96  A    between atoms: _232  and  _235
REMARK   97  A    between atoms: _235  and  _236
REMARK   98  A    between atoms: _239  and  _241
REMARK   99  A    between atoms: _241  and  _242
REMARK  100  A    between atoms: _241  and  _244
REMARK  101  A    between atoms: _244  and  _245
REMARK  102  A    between atoms: _250  and  _252
REMARK  103  A    between atoms: _252  and  _253
REMARK  104  A    between atoms: _252  and  _255
REMARK  105  A    between atoms: _255  and  _256
REMARK  106  A    between atoms: _261  and  _263
REMARK  107  A    between atoms: _263  and  _264
REMARK  108  A    between atoms: _263  and  _266
REMARK  109  A    between atoms: _266  and  _267
REMARK  110  A    between atoms: _270  and  _272
REMARK  111  A    between atoms: _272  and  _273
REMARK  112  A    between atoms: _272  and  _275
REMARK  113  A    between atoms: _275  and  _276
REMARK  114  A    between atoms: _286  and  _288
REMARK  115  A    between atoms: _288  and  _289
REMARK  116  A    between atoms: _288  and  _291
REMARK  117  A    between atoms: _291  and  _292
REMARK  118  A    between atoms: _295  and  _297
REMARK  119  A    between atoms: _297  and  _298
REMARK  120  A    between atoms: _297  and  _300
REMARK  121  A    between atoms: _300  and  _301
REMARK  122  A    between atoms: _306  and  _308
REMARK  123  A    between atoms: _308  and  _309
REMARK  124  A    between atoms: _308  and  _311
REMARK  125  A    between atoms: _311  and  _312
REMARK  126  A    between atoms: _318  and  _320
REMARK  127  A    between atoms: _320  and  _321
REMARK  128  A    between atoms: _320  and  _323
REMARK  129  A    between atoms: _323  and  _324
REMARK  130  A    between atoms: _334  and  _336
REMARK  131  A    between atoms: _336  and  _337
REMARK  132  A    between atoms: _336  and  _339
REMARK  133  A    between atoms: _339  and  _340
REMARK  134  A    between atoms: _343  and  _345
REMARK  135  A    between atoms: _345  and  _346
REMARK  136  A    between atoms: _345  and  _348
REMARK  137  A    between atoms: _348  and  _349
REMARK  138  A    between atoms: _354  and  _356
REMARK  139  A    between atoms: _356  and  _357
REMARK  140  A    between atoms: _356  and  _359
REMARK  141  A    between atoms: _359  and  _360
REMARK  142  A    between atoms: _360  and  _361
REMARK  143  A    between atoms: _361  and  _362
REMARK  144  A    between atoms: _362  and  ZN_637
REMARK  145  A    between atoms: _364  and  _366
REMARK  146  A    between atoms: _366  and  _367
REMARK  147  A    between atoms: _366  and  _369
REMARK  148  A    between atoms: _369  and  _370
REMARK  149  A    between atoms: _373  and  _375
REMARK  150  A    between atoms: _375  and  _376
REMARK  151  A    between atoms: _375  and  _378
REMARK  152  A    between atoms: _381  and  _383
REMARK  153  A    between atoms: _383  and  _384
REMARK  154  A    between atoms: _383  and  _386
REMARK  155  A    between atoms: _386  and  _387
REMARK  156  A    between atoms: _387  and  _388
REMARK  157  A    between atoms: _391  and  _393
REMARK  158  A    between atoms: _393  and  _394
REMARK  159  A    between atoms: _393  and  _396
REMARK  160  A    between atoms: _396  and  _397
REMARK  161  A    between atoms: _404  and  _405
REMARK  162  A    between atoms: _410  and  _412
REMARK  163  A    between atoms: _412  and  _413
REMARK  164  A    between atoms: _412  and  _415
REMARK  165  A    between atoms: _415  and  _416
REMARK  166  A    between atoms: _422  and  _424
REMARK  167  A    between atoms: _424  and  _425
REMARK  168  A    between atoms: _424  and  _427
REMARK  169  A    between atoms: _427  and  _428
REMARK  170  A    between atoms: _431  and  _433
REMARK  171  A    between atoms: _433  and  _434
REMARK  172  A    between atoms: _433  and  _436
REMARK  173  A    between atoms: _436  and  _437
REMARK  174  A    between atoms: _437  and  _438
REMARK  175  A    between atoms: _438  and  _439
REMARK  176  A    between atoms: _439  and  _440
REMARK  177  A    between atoms: _444  and  _446
REMARK  178  A    between atoms: _446  and  _447
REMARK  179  A    between atoms: _446  and  _449
REMARK  180  A    between atoms: _449  and  _450
REMARK  181  A    between atoms: _453  and  _455
REMARK  182  A    between atoms: _455  and  _456
REMARK  183  A    between atoms: _455  and  _458
REMARK  184  A    between atoms: _461  and  _463
REMARK  185  A    between atoms: _463  and  _464
REMARK  186  A    between atoms: _463  and  _466
REMARK  187  A    between atoms: _469  and  _471
REMARK  188  A    between atoms: _471  and  _472
REMARK  189  A    between atoms: _471  and  _474
REMARK  190  A    between atoms: _474  and  _475
REMARK  191  A    between atoms: _478  and  _480
REMARK  192  A    between atoms: _480  and  _481
REMARK  193  A    between atoms: _480  and  _483
REMARK  194  A    between atoms: _483  and  _484
REMARK  195  A    between atoms: _487  and  _489
REMARK  196  A    between atoms: _489  and  _490
REMARK  197  A    between atoms: _489  and  _492
REMARK  198  A    between atoms: _492  and  _493
REMARK  199  A    between atoms: _496  and  _498
REMARK  200  A    between atoms: _498  and  _499
REMARK  201  A    between atoms: _498  and  _501
REMARK  202  A    between atoms: _501  and  _502
REMARK  203  A    between atoms: _506  and  _507
REMARK  204  A    between atoms: _512  and  _514
REMARK  205  A    between atoms: _514  and  _515
REMARK  206  A    between atoms: _514  and  _517
REMARK  207  A    between atoms: _517  and  _518
REMARK  208  A    between atoms: _521  and  _523
REMARK  209  A    between atoms: _523  and  _524
REMARK  210  A    between atoms: _523  and  _526
REMARK  211  A    between atoms: _529  and  _531
REMARK  212  A    between atoms: _531  and  _532
REMARK  213  A    between atoms: _535  and  _537
REMARK  214  A    between atoms: _537  and  _538
REMARK  215  A    between atoms: _537  and  _540
REMARK  216  A    between atoms: _540  and  _541
REMARK  217  A    between atoms: _546  and  _547
REMARK  218  A    between atoms: _549  and  _551
REMARK  219  A    between atoms: _551  and  _552
REMARK  220  A    between atoms: _551  and  _554
REMARK  221  A    between atoms: _554  and  _555
REMARK  222  A    between atoms: _557  and  _559
REMARK  223  A    between atoms: _559  and  _560
REMARK  224  A    between atoms: _559  and  _562
REMARK  225  A    between atoms: _562  and  _563
REMARK  226  A    between atoms: _565  and  _567
REMARK  227  A    between atoms: _567  and  _568
REMARK  228  A    between atoms: _567  and  _570
REMARK  229  A    between atoms: _574  and  _575
REMARK  230  A    between atoms: _580  and  _582
REMARK  231  A    between atoms: _582  and  _583
REMARK  232  A    between atoms: _582  and  _585
REMARK  233  A    between atoms: _585  and  _586
REMARK  234  A    between atoms: _591  and  _592
REMARK  235  A    between atoms: _594  and  _596
REMARK  236  A    between atoms: _596  and  _597
REMARK  237  A    between atoms: _596  and  _599
REMARK  238  A    between atoms: _599  and  _600
REMARK  239  A    between atoms: _600  and  _601
REMARK  240  A    between atoms: _601  and  _602
REMARK  241  A    between atoms: _611  and  _613
REMARK  242  A    between atoms: _613  and  _614
REMARK  243  A    between atoms: _613  and  _616
REMARK  244  A    between atoms: _616  and  _617
REMARK  245  A    between atoms: _617  and  _618
REMARK  246  A    between atoms: _620  and  _622
REMARK  247  A    between atoms: _622  and  _623
REMARK  248  A    between atoms: _622  and  _625
REMARK  249  A    between atoms: _628  and  _630
REMARK  250  A    between atoms: _630  and  _631
REMARK  251  A    between atoms: _630  and  _633
REMARK  252  A    between atoms: _633  and  _634
REMARK                            x       y       z     vdW  Elec       q    Type
REMARK                         _______ _______ _______ _____ _____    ______ ____
ROOT
ATOM      1  O   HOH     1      42.459  88.047  -4.770  0.00  0.00    +0.000 OA
ENDROOT
TORSDOF 0
REMARK  Name = ../refined-set-2016/3fh7/3fh7_pocket.pdb
REMARK  252 active torsions:
REMARK  status: ('A' for Active; 'I' for Inactive)
REMARK    1  A    between atoms: _1  and  _3
REMARK    2  A    between atoms: _3  and  _4
REMARK    3  A    between atoms: _3  and  _6
REMARK    4  A    between atoms: _8  and  _10
REMARK    5  A    between atoms: _10  and  _11
REMARK    6  A    between atoms: _10  and  _13
REMARK    7  A    between atoms: _13  and  _14
REMARK    8  A    between atoms: _16  and  _18
REMARK    9  A    between atoms: _18  and  _19
REMARK   10  A    between atoms: _18  and  _21
REMARK   11  A    between atoms: _21  and  _22
REMARK   12  A    between atoms: _22  and  _23
REMARK   13  A    between atoms: _28  and  _30
REMARK   14  A    between atoms: _30  and  _31
REMARK   15  A    between atoms: _30  and  _33
REMARK   16  A    between atoms: _35  and  _37
REMARK   17  A    between atoms: _37  and  _38
REMARK   18  A    between atoms: _37  and  _40
REMARK   19  A    between atoms: _40  and  _41
REMARK   20  A    between atoms: _41  and  _42
REMARK   21  A    between atoms: _47  and  _49
REMARK   22  A    between atoms: _49  and  _50
REMARK   23  A    between atoms: _53  and  _55
REMARK   24  A    between atoms: _55  and  _56
REMARK   25  A    between atoms: _55  and  _58
REMARK   26  A    between atoms: _58  and  _59
REMARK   27  A    between atoms: _62  and  _64
REMARK   28  A    between atoms: _64  and  _65
REMARK   29  A    between atoms: _64  and  _67
REMARK   30  A    between atoms: _67  and  _68
REMARK   31  A    between atoms: _73  and  _75
REMARK   32  A    between atoms: _75  and  _76
REMARK   33  A    between atoms: _75  and  _78
REMARK   34  A    between atoms: _78  and  _79
REMARK   35  A    between atoms: _84  and  _85
REMARK   36  A    between atoms: _87  and  _89
REMARK   37  A    between atoms: _89  and  _90
REMARK   38  A    between atoms: _89  and  _92
REMARK   39  A    between atoms: _92  and  _93
REMARK   40  A    between atoms: _100  and  _101
REMARK   41  A    between atoms: _106  and  _108
REMARK   42  A    between atoms: _108  and  _109
REMARK   43  A    between atoms: _108  and  _111
REMARK   44  A    between atoms: _111  and  _112
REMARK   45  A    between atoms: _117  and  _118
REMARK   46  A    between atoms: _120  and  _122
REMARK   47  A    between atoms: _122  and  _123
REMARK   48  A    between atoms: _125  and  _127
REMARK   49  A    between atoms: _127  and  _128
REMARK   50  A    between atoms: _130  and  _132
REMARK   51  A    between atoms: _132  and  _133
REMARK   52  A    between atoms: _132  and  _135
REMARK   53  A    between atoms: _135  and  _136
REMARK   54  A    between atoms: _136  and  _137
REMARK   55  A    between atoms: _139  and  _141
REMARK   56  A    between atoms: _141  and  _142
REMARK   57  A    between atoms: _141  and  _144
REMARK   58  A    between atoms: _144  and  _145
REMARK   59  A    between atoms: _145  and  _146
REMARK   60  A    between atoms: _149  and  _151
REMARK   61  A    between atoms: _151  and  _152
REMARK   62  A    between atoms: _151  and  _154
REMARK   63  A    between atoms: _154  and  _155
REMARK   64  A    between atoms: _160  and  _162
REMARK   65  A    between atoms: _162  and  _163
REMARK   66  A    between atoms: _162  and  _165
REMARK   67  A    between atoms: _165  and  _166
REMARK   68  A    between atoms: _169  and  _171
REMARK   69  A    between atoms: _171  and  _172
REMARK   70  A    between atoms: _171  and  _174
REMARK   71  A    between atoms: _174  and  _175
REMARK   72  A    between atoms: _181  and  _183
REMARK   73  A    between atoms: _183  and  _184
REMARK   74  A    between atoms: _183  and  _186
REMARK   75  A    between atoms: _189  and  _191
REMARK   76  A    between atoms: _191  and  _192
REMARK   77  A    between atoms: _191  and  _194
REMARK   78  A    between atoms: _194  and  _195
REMARK   79  A    between atoms: _199  and  ZN_637
REMARK   80  A    between atoms: _200  and  _202
REMARK   81  A    between atoms: _202  and  _203
REMARK   82  A    between atoms: _202  and  _205
REMARK   83  A    between atoms: _205  and  _206
REMARK   84  A    between atoms: _206  and  _207
REMARK   85  A    between atoms: _210  and  _212
REMARK   86  A    between atoms: _212  and  _213
REMARK   87  A    between atoms: _212  and  _215
REMARK   88  A    between atoms: _215  and  _216
REMARK   89  A    between atoms: _219  and  _221
REMARK   90  A    between atoms: _221  and  _222
REMARK   91  A    between atoms: _221  and  _224
REMARK   92  A    between atoms: _224  and  _225
REMARK   93  A    between atoms: _229  and  ZN_637
REMARK   94  A    between atoms: _230  and  _232
REMARK   95  A    between atoms: _232  and  _233
REMARK   96  A    between atoms: _232  and  _235
REMARK   97  A    between atoms: _235  and  _236
REMARK   98  A    between atoms: _239  and  _241
REMARK   99  A    between atoms: _241  and  _242
REMARK  100  A    between atoms: _241  and  _244
REMARK  101  A    between atoms: _244  and  _245
REMARK  102  A    between atoms: _250  and  _252
REMARK  103  A    between atoms: _252  and  _253
REMARK  104  A    between atoms: _252  and  _255
REMARK  105  A    between atoms: _255  and  _256
REMARK  106  A    between atoms: _261  and  _263
REMARK  107  A    between atoms: _263  and  _264
REMARK  108  A    between atoms: _263  and  _266
REMARK  109  A    between atoms: _266  and  _267
REMARK  110  A    between atoms: _270  and  _272
REMARK  111  A    between atoms: _272  and  _273
REMARK  112  A    between atoms: _272  and  _275
REMARK  113  A    between atoms: _275  and  _276
REMARK  114  A    between atoms: _286  and  _288
REMARK  115  A    between atoms: _288  and  _289
REMARK  116  A    between atoms: _288  and  _291
REMARK  117  A    between atoms: _291  and  _292
REMARK  118  A    between atoms: _295  and  _297
REMARK  119  A    between atoms: _297  and  _298
REMARK  120  A    between atoms: _297  and  _300
REMARK  121  A    between atoms: _300  and  _301
REMARK  122  A    between atoms: _306  and  _308
REMARK  123  A    between atoms: _308  and  _309
REMARK  124  A    between atoms: _308  and  _311
REMARK  125  A    between atoms: _311  and  _312
REMARK  126  A    between atoms: _318  and  _320
REMARK  127  A    between atoms: _320  and  _321
REMARK  128  A    between atoms: _320  and  _323
REMARK  129  A    between atoms: _323  and  _324
REMARK  130  A    between atoms: _334  and  _336
REMARK  131  A    between atoms: _336  and  _337
REMARK  132  A    between atoms: _336  and  _339
REMARK  133  A    between atoms: _339  and  _340
REMARK  134  A    between atoms: _343  and  _345
REMARK  135  A    between atoms: _345  and  _346
REMARK  136  A    between atoms: _345  and  _348
REMARK  137  A    between atoms: _348  and  _349
REMARK  138  A    between atoms: _354  and  _356
REMARK  139  A    between atoms: _356  and  _357
REMARK  140  A    between atoms: _356  and  _359
REMARK  141  A    between atoms: _359  and  _360
REMARK  142  A    between atoms: _360  and  _361
REMARK  143  A    between atoms: _361  and  _362
REMARK  144  A    between atoms: _362  and  ZN_637
REMARK  145  A    between atoms: _364  and  _366
REMARK  146  A    between atoms: _366  and  _367
REMARK  147  A    between atoms: _366  and  _369
REMARK  148  A    between atoms: _369  and  _370
REMARK  149  A    between atoms: _373  and  _375
REMARK  150  A    between atoms: _375  and  _376
REMARK  151  A    between atoms: _375  and  _378
REMARK  152  A    between atoms: _381  and  _383
REMARK  153  A    between atoms: _383  and  _384
REMARK  154  A    between atoms: _383  and  _386
REMARK  155  A    between atoms: _386  and  _387
REMARK  156  A    between atoms: _387  and  _388
REMARK  157  A    between atoms: _391  and  _393
REMARK  158  A    between atoms: _393  and  _394
REMARK  159  A    between atoms: _393  and  _396
REMARK  160  A    between atoms: _396  and  _397
REMARK  161  A    between atoms: _404  and  _405
REMARK  162  A    between atoms: _410  and  _412
REMARK  163  A    between atoms: _412  and  _413
REMARK  164  A    between atoms: _412  and  _415
REMARK  165  A    between atoms: _415  and  _416
REMARK  166  A    between atoms: _422  and  _424
REMARK  167  A    between atoms: _424  and  _425
REMARK  168  A    between atoms: _424  and  _427
REMARK  169  A    between atoms: _427  and  _428
REMARK  170  A    between atoms: _431  and  _433
REMARK  171  A    between atoms: _433  and  _434
REMARK  172  A    between atoms: _433  and  _436
REMARK  173  A    between atoms: _436  and  _437
REMARK  174  A    between atoms: _437  and  _438
REMARK  175  A    between atoms: _438  and  _439
REMARK  176  A    between atoms: _439  and  _440
REMARK  177  A    between atoms: _444  and  _446
REMARK  178  A    between atoms: _446  and  _447
REMARK  179  A    between atoms: _446  and  _449
REMARK  180  A    between atoms: _449  and  _450
REMARK  181  A    between atoms: _453  and  _455
REMARK  182  A    between atoms: _455  and  _456
REMARK  183  A    between atoms: _455  and  _458
REMARK  184  A    between atoms: _461  and  _463
REMARK  185  A    between atoms: _463  and  _464
REMARK  186  A    between atoms: _463  and  _466
REMARK  187  A    between atoms: _469  and  _471
REMARK  188  A    between atoms: _471  and  _472
REMARK  189  A    between atoms: _471  and  _474
REMARK  190  A    between atoms: _474  and  _475
REMARK  191  A    between atoms: _478  and  _480
REMARK  192  A    between atoms: _480  and  _481
REMARK  193  A    between atoms: _480  and  _483
REMARK  194  A    between atoms: _483  and  _484
REMARK  195  A    between atoms: _487  and  _489
REMARK  196  A    between atoms: _489  and  _490
REMARK  197  A    between atoms: _489  and  _492
REMARK  198  A    between atoms: _492  and  _493
REMARK  199  A    between atoms: _496  and  _498
REMARK  200  A    between atoms: _498  and  _499
REMARK  201  A    between atoms: _498  and  _501
REMARK  202  A    between atoms: _501  and  _502
REMARK  203  A    between atoms: _506  and  _507
REMARK  204  A    between atoms: _512  and  _514
REMARK  205  A    between atoms: _514  and  _515
REMARK  206  A    between atoms: _514  and  _517
REMARK  207  A    between atoms: _517  and  _518
REMARK  208  A    between atoms: _521  and  _523
REMARK  209  A    between atoms: _523  and  _524
REMARK  210  A    between atoms: _523  and  _526
REMARK  211  A    between atoms: _529  and  _531
REMARK  212  A    between atoms: _531  and  _532
REMARK  213  A    between atoms: _535  and  _537
REMARK  214  A    between atoms: _537  and  _538
REMARK  215  A    between atoms: _537  and  _540
REMARK  216  A    between atoms: _540  and  _541
REMARK  217  A    between atoms: _546  and  _547
REMARK  218  A    between atoms: _549  and  _551
REMARK  219  A    between atoms: _551  and  _552
REMARK  220  A    between atoms: _551  and  _554
REMARK  221  A    between atoms: _554  and  _555
REMARK  222  A    between atoms: _557  and  _559
REMARK  223  A    between atoms: _559  and  _560
REMARK  224  A    between atoms: _559  and  _562
REMARK  225  A    between atoms: _562  and  _563
REMARK  226  A    between atoms: _565  and  _567
REMARK  227  A    between atoms: _567  and  _568
REMARK  228  A    between atoms: _567  and  _570
REMARK  229  A    between atoms: _574  and  _575
REMARK  230  A    between atoms: _580  and  _582
REMARK  231  A    between atoms: _582  and  _583
REMARK  232  A    between atoms: _582  and  _585
REMARK  233  A    between atoms: _585  and  _586
REMARK  234  A    between atoms: _591  and  _592
REMARK  235  A    between atoms: _594  and  _596
REMARK  236  A    between atoms: _596  and  _597
REMARK  237  A    between atoms: _596  and  _599
REMARK  238  A    between atoms: _599  and  _600
REMARK  239  A    between atoms: _600  and  _601
REMARK  240  A    between atoms: _601  and  _602
REMARK  241  A    between atoms: _611  and  _613
REMARK  242  A    between atoms: _613  and  _614
REMARK  243  A    between atoms: _613  and  _616
REMARK  244  A    between atoms: _616  and  _617
REMARK  245  A    between atoms: _617  and  _618
REMARK  246  A    between atoms: _620  and  _622
REMARK  247  A    between atoms: _622  and  _623
REMARK  248  A    between atoms: _622  and  _625
REMARK  249  A    between atoms: _628  and  _630
REMARK  250  A    between atoms: _630  and  _631
REMARK  251  A    between atoms: _630  and  _633
REMARK  252  A    between atoms: _633  and  _634
REMARK                            x       y       z     vdW  Elec       q    Type
REMARK                         _______ _______ _______ _____ _____    ______ ____
ROOT
ATOM      1  O   HOH     1      35.298  74.954  -1.826  0.00  0.00    +0.000 OA
ENDROOT
TORSDOF 0
REMARK  Name = ../refined-set-2016/3fh7/3fh7_pocket.pdb
REMARK  252 active torsions:
REMARK  status: ('A' for Active; 'I' for Inactive)
REMARK    1  A    between atoms: _1  and  _3
REMARK    2  A    between atoms: _3  and  _4
REMARK    3  A    between atoms: _3  and  _6
REMARK    4  A    between atoms: _8  and  _10
REMARK    5  A    between atoms: _10  and  _11
REMARK    6  A    between atoms: _10  and  _13
REMARK    7  A    between atoms: _13  and  _14
REMARK    8  A    between atoms: _16  and  _18
REMARK    9  A    between atoms: _18  and  _19
REMARK   10  A    between atoms: _18  and  _21
REMARK   11  A    between atoms: _21  and  _22
REMARK   12  A    between atoms: _22  and  _23
REMARK   13  A    between atoms: _28  and  _30
REMARK   14  A    between atoms: _30  and  _31
REMARK   15  A    between atoms: _30  and  _33
REMARK   16  A    between atoms: _35  and  _37
REMARK   17  A    between atoms: _37  and  _38
REMARK   18  A    between atoms: _37  and  _40
REMARK   19  A    between atoms: _40  and  _41
REMARK   20  A    between atoms: _41  and  _42
REMARK   21  A    between atoms: _47  and  _49
REMARK   22  A    between atoms: _49  and  _50
REMARK   23  A    between atoms: _53  and  _55
REMARK   24  A    between atoms: _55  and  _56
REMARK   25  A    between atoms: _55  and  _58
REMARK   26  A    between atoms: _58  and  _59
REMARK   27  A    between atoms: _62  and  _64
REMARK   28  A    between atoms: _64  and  _65
REMARK   29  A    between atoms: _64  and  _67
REMARK   30  A    between atoms: _67  and  _68
REMARK   31  A    between atoms: _73  and  _75
REMARK   32  A    between atoms: _75  and  _76
REMARK   33  A    between atoms: _75  and  _78
REMARK   34  A    between atoms: _78  and  _79
REMARK   35  A    between atoms: _84  and  _85
REMARK   36  A    between atoms: _87  and  _89
REMARK   37  A    between atoms: _89  and  _90
REMARK   38  A    between atoms: _89  and  _92
REMARK   39  A    between atoms: _92  and  _93
REMARK   40  A    between atoms: _100  and  _101
REMARK   41  A    between atoms: _106  and  _108
REMARK   42  A    between atoms: _108  and  _109
REMARK   43  A    between atoms: _108  and  _111
REMARK   44  A    between atoms: _111  and  _112
REMARK   45  A    between atoms: _117  and  _118
REMARK   46  A    between atoms: _120  and  _122
REMARK   47  A    between atoms: _122  and  _123
REMARK   48  A    between atoms: _125  and  _127
REMARK   49  A    between atoms: _127  and  _128
REMARK   50  A    between atoms: _130  and  _132
REMARK   51  A    between atoms: _132  and  _133
REMARK   52  A    between atoms: _132  and  _135
REMARK   53  A    between atoms: _135  and  _136
REMARK   54  A    between atoms: _136  and  _137
REMARK   55  A    between atoms: _139  and  _141
REMARK   56  A    between atoms: _141  and  _142
REMARK   57  A    between atoms: _141  and  _144
REMARK   58  A    between atoms: _144  and  _145
REMARK   59  A    between atoms: _145  and  _146
REMARK   60  A    between atoms: _149  and  _151
REMARK   61  A    between atoms: _151  and  _152
REMARK   62  A    between atoms: _151  and  _154
REMARK   63  A    between atoms: _154  and  _155
REMARK   64  A    between atoms: _160  and  _162
REMARK   65  A    between atoms: _162  and  _163
REMARK   66  A    between atoms: _162  and  _165
REMARK   67  A    between atoms: _165  and  _166
REMARK   68  A    between atoms: _169  and  _171
REMARK   69  A    between atoms: _171  and  _172
REMARK   70  A    between atoms: _171  and  _174
REMARK   71  A    between atoms: _174  and  _175
REMARK   72  A    between atoms: _181  and  _183
REMARK   73  A    between atoms: _183  and  _184
REMARK   74  A    between atoms: _183  and  _186
REMARK   75  A    between atoms: _189  and  _191
REMARK   76  A    between atoms: _191  and  _192
REMARK   77  A    between atoms: _191  and  _194
REMARK   78  A    between atoms: _194  and  _195
REMARK   79  A    between atoms: _199  and  ZN_637
REMARK   80  A    between atoms: _200  and  _202
REMARK   81  A    between atoms: _202  and  _203
REMARK   82  A    between atoms: _202  and  _205
REMARK   83  A    between atoms: _205  and  _206
REMARK   84  A    between atoms: _206  and  _207
REMARK   85  A    between atoms: _210  and  _212
REMARK   86  A    between atoms: _212  and  _213
REMARK   87  A    between atoms: _212  and  _215
REMARK   88  A    between atoms: _215  and  _216
REMARK   89  A    between atoms: _219  and  _221
REMARK   90  A    between atoms: _221  and  _222
REMARK   91  A    between atoms: _221  and  _224
REMARK   92  A    between atoms: _224  and  _225
REMARK   93  A    between atoms: _229  and  ZN_637
REMARK   94  A    between atoms: _230  and  _232
REMARK   95  A    between atoms: _232  and  _233
REMARK   96  A    between atoms: _232  and  _235
REMARK   97  A    between atoms: _235  and  _236
REMARK   98  A    between atoms: _239  and  _241
REMARK   99  A    between atoms: _241  and  _242
REMARK  100  A    between atoms: _241  and  _244
REMARK  101  A    between atoms: _244  and  _245
REMARK  102  A    between atoms: _250  and  _252
REMARK  103  A    between atoms: _252  and  _253
REMARK  104  A    between atoms: _252  and  _255
REMARK  105  A    between atoms: _255  and  _256
REMARK  106  A    between atoms: _261  and  _263
REMARK  107  A    between atoms: _263  and  _264
REMARK  108  A    between atoms: _263  and  _266
REMARK  109  A    between atoms: _266  and  _267
REMARK  110  A    between atoms: _270  and  _272
REMARK  111  A    between atoms: _272  and  _273
REMARK  112  A    between atoms: _272  and  _275
REMARK  113  A    between atoms: _275  and  _276
REMARK  114  A    between atoms: _286  and  _288
REMARK  115  A    between atoms: _288  and  _289
REMARK  116  A    between atoms: _288  and  _291
REMARK  117  A    between atoms: _291  and  _292
REMARK  118  A    between atoms: _295  and  _297
REMARK  119  A    between atoms: _297  and  _298
REMARK  120  A    between atoms: _297  and  _300
REMARK  121  A    between atoms: _300  and  _301
REMARK  122  A    between atoms: _306  and  _308
REMARK  123  A    between atoms: _308  and  _309
REMARK  124  A    between atoms: _308  and  _311
REMARK  125  A    between atoms: _311  and  _312
REMARK  126  A    between atoms: _318  and  _320
REMARK  127  A    between atoms: _320  and  _321
REMARK  128  A    between atoms: _320  and  _323
REMARK  129  A    between atoms: _323  and  _324
REMARK  130  A    between atoms: _334  and  _336
REMARK  131  A    between atoms: _336  and  _337
REMARK  132  A    between atoms: _336  and  _339
REMARK  133  A    between atoms: _339  and  _340
REMARK  134  A    between atoms: _343  and  _345
REMARK  135  A    between atoms: _345  and  _346
REMARK  136  A    between atoms: _345  and  _348
REMARK  137  A    between atoms: _348  and  _349
REMARK  138  A    between atoms: _354  and  _356
REMARK  139  A    between atoms: _356  and  _357
REMARK  140  A    between atoms: _356  and  _359
REMARK  141  A    between atoms: _359  and  _360
REMARK  142  A    between atoms: _360  and  _361
REMARK  143  A    between atoms: _361  and  _362
REMARK  144  A    between atoms: _362  and  ZN_637
REMARK  145  A    between atoms: _364  and  _366
REMARK  146  A    between atoms: _366  and  _367
REMARK  147  A    between atoms: _366  and  _369
REMARK  148  A    between atoms: _369  and  _370
REMARK  149  A    between atoms: _373  and  _375
REMARK  150  A    between atoms: _375  and  _376
REMARK  151  A    between atoms: _375  and  _378
REMARK  152  A    between atoms: _381  and  _383
REMARK  153  A    between atoms: _383  and  _384
REMARK  154  A    between atoms: _383  and  _386
REMARK  155  A    between atoms: _386  and  _387
REMARK  156  A    between atoms: _387  and  _388
REMARK  157  A    between atoms: _391  and  _393
REMARK  158  A    between atoms: _393  and  _394
REMARK  159  A    between atoms: _393  and  _396
REMARK  160  A    between atoms: _396  and  _397
REMARK  161  A    between atoms: _404  and  _405
REMARK  162  A    between atoms: _410  and  _412
REMARK  163  A    between atoms: _412  and  _413
REMARK  164  A    between atoms: _412  and  _415
REMARK  165  A    between atoms: _415  and  _416
REMARK  166  A    between atoms: _422  and  _424
REMARK  167  A    between atoms: _424  and  _425
REMARK  168  A    between atoms: _424  and  _427
REMARK  169  A    between atoms: _427  and  _428
REMARK  170  A    between atoms: _431  and  _433
REMARK  171  A    between atoms: _433  and  _434
REMARK  172  A    between atoms: _433  and  _436
REMARK  173  A    between atoms: _436  and  _437
REMARK  174  A    between atoms: _437  and  _438
REMARK  175  A    between atoms: _438  and  _439
REMARK  176  A    between atoms: _439  and  _440
REMARK  177  A    between atoms: _444  and  _446
REMARK  178  A    between atoms: _446  and  _447
REMARK  179  A    between atoms: _446  and  _449
REMARK  180  A    between atoms: _449  and  _450
REMARK  181  A    between atoms: _453  and  _455
REMARK  182  A    between atoms: _455  and  _456
REMARK  183  A    between atoms: _455  and  _458
REMARK  184  A    between atoms: _461  and  _463
REMARK  185  A    between atoms: _463  and  _464
REMARK  186  A    between atoms: _463  and  _466
REMARK  187  A    between atoms: _469  and  _471
REMARK  188  A    between atoms: _471  and  _472
REMARK  189  A    between atoms: _471  and  _474
REMARK  190  A    between atoms: _474  and  _475
REMARK  191  A    between atoms: _478  and  _480
REMARK  192  A    between atoms: _480  and  _481
REMARK  193  A    between atoms: _480  and  _483
REMARK  194  A    between atoms: _483  and  _484
REMARK  195  A    between atoms: _487  and  _489
REMARK  196  A    between atoms: _489  and  _490
REMARK  197  A    between atoms: _489  and  _492
REMARK  198  A    between atoms: _492  and  _493
REMARK  199  A    between atoms: _496  and  _498
REMARK  200  A    between atoms: _498  and  _499
REMARK  201  A    between atoms: _498  and  _501
REMARK  202  A    between atoms: _501  and  _502
REMARK  203  A    between atoms: _506  and  _507
REMARK  204  A    between atoms: _512  and  _514
REMARK  205  A    between atoms: _514  and  _515
REMARK  206  A    between atoms: _514  and  _517
REMARK  207  A    between atoms: _517  and  _518
REMARK  208  A    between atoms: _521  and  _523
REMARK  209  A    between atoms: _523  and  _524
REMARK  210  A    between atoms: _523  and  _526
REMARK  211  A    between atoms: _529  and  _531
REMARK  212  A    between atoms: _531  and  _532
REMARK  213  A    between atoms: _535  and  _537
REMARK  214  A    between atoms: _537  and  _538
REMARK  215  A    between atoms: _537  and  _540
REMARK  216  A    between atoms: _540  and  _541
REMARK  217  A    between atoms: _546  and  _547
REMARK  218  A    between atoms: _549  and  _551
REMARK  219  A    between atoms: _551  and  _552
REMARK  220  A    between atoms: _551  and  _554
REMARK  221  A    between atoms: _554  and  _555
REMARK  222  A    between atoms: _557  and  _559
REMARK  223  A    between atoms: _559  and  _560
REMARK  224  A    between atoms: _559  and  _562
REMARK  225  A    between atoms: _562  and  _563
REMARK  226  A    between atoms: _565  and  _567
REMARK  227  A    between atoms: _567  and  _568
REMARK  228  A    between atoms: _567  and  _570
REMARK  229  A    between atoms: _574  and  _575
REMARK  230  A    between atoms: _580  and  _582
REMARK  231  A    between atoms: _582  and  _583
REMARK  232  A    between atoms: _582  and  _585
REMARK  233  A    between atoms: _585  and  _586
REMARK  234  A    between atoms: _591  and  _592
REMARK  235  A    between atoms: _594  and  _596
REMARK  236  A    between atoms: _596  and  _597
REMARK  237  A    between atoms: _596  and  _599
REMARK  238  A    between atoms: _599  and  _600
REMARK  239  A    between atoms: _600  and  _601
REMARK  240  A    between atoms: _601  and  _602
REMARK  241  A    between atoms: _611  and  _613
REMARK  242  A    between atoms: _613  and  _614
REMARK  243  A    between atoms: _613  and  _616
REMARK  244  A    between atoms: _616  and  _617
REMARK  245  A    between atoms: _617  and  _618
REMARK  246  A    between atoms: _620  and  _622
REMARK  247  A    between atoms: _622  and  _623
REMARK  248  A    between atoms: _622  and  _625
REMARK  249  A    between atoms: _628  and  _630
REMARK  250  A    between atoms: _630  and  _631
REMARK  251  A    between atoms: _630  and  _633
REMARK  252  A    between atoms: _633  and  _634
REMARK                            x       y       z     vdW  Elec       q    Type
REMARK                         _______ _______ _______ _____ _____    ______ ____
ROOT
ATOM      1  O   HOH     1      15.901  85.503  -6.077  0.00  0.00    +0.000 OA
ENDROOT
TORSDOF 0
REMARK  Name = ../refined-set-2016/3fh7/3fh7_pocket.pdb
REMARK  252 active torsions:
REMARK  status: ('A' for Active; 'I' for Inactive)
REMARK    1  A    between atoms: _1  and  _3
REMARK    2  A    between atoms: _3  and  _4
REMARK    3  A    between atoms: _3  and  _6
REMARK    4  A    between atoms: _8  and  _10
REMARK    5  A    between atoms: _10  and  _11
REMARK    6  A    between atoms: _10  and  _13
REMARK    7  A    between atoms: _13  and  _14
REMARK    8  A    between atoms: _16  and  _18
REMARK    9  A    between atoms: _18  and  _19
REMARK   10  A    between atoms: _18  and  _21
REMARK   11  A    between atoms: _21  and  _22
REMARK   12  A    between atoms: _22  and  _23
REMARK   13  A    between atoms: _28  and  _30
REMARK   14  A    between atoms: _30  and  _31
REMARK   15  A    between atoms: _30  and  _33
REMARK   16  A    between atoms: _35  and  _37
REMARK   17  A    between atoms: _37  and  _38
REMARK   18  A    between atoms: _37  and  _40
REMARK   19  A    between atoms: _40  and  _41
REMARK   20  A    between atoms: _41  and  _42
REMARK   21  A    between atoms: _47  and  _49
REMARK   22  A    between atoms: _49  and  _50
REMARK   23  A    between atoms: _53  and  _55
REMARK   24  A    between atoms: _55  and  _56
REMARK   25  A    between atoms: _55  and  _58
REMARK   26  A    between atoms: _58  and  _59
REMARK   27  A    between atoms: _62  and  _64
REMARK   28  A    between atoms: _64  and  _65
REMARK   29  A    between atoms: _64  and  _67
REMARK   30  A    between atoms: _67  and  _68
REMARK   31  A    between atoms: _73  and  _75
REMARK   32  A    between atoms: _75  and  _76
REMARK   33  A    between atoms: _75  and  _78
REMARK   34  A    between atoms: _78  and  _79
REMARK   35  A    between atoms: _84  and  _85
REMARK   36  A    between atoms: _87  and  _89
REMARK   37  A    between atoms: _89  and  _90
REMARK   38  A    between atoms: _89  and  _92
REMARK   39  A    between atoms: _92  and  _93
REMARK   40  A    between atoms: _100  and  _101
REMARK   41  A    between atoms: _106  and  _108
REMARK   42  A    between atoms: _108  and  _109
REMARK   43  A    between atoms: _108  and  _111
REMARK   44  A    between atoms: _111  and  _112
REMARK   45  A    between atoms: _117  and  _118
REMARK   46  A    between atoms: _120  and  _122
REMARK   47  A    between atoms: _122  and  _123
REMARK   48  A    between atoms: _125  and  _127
REMARK   49  A    between atoms: _127  and  _128
REMARK   50  A    between atoms: _130  and  _132
REMARK   51  A    between atoms: _132  and  _133
REMARK   52  A    between atoms: _132  and  _135
REMARK   53  A    between atoms: _135  and  _136
REMARK   54  A    between atoms: _136  and  _137
REMARK   55  A    between atoms: _139  and  _141
REMARK   56  A    between atoms: _141  and  _142
REMARK   57  A    between atoms: _141  and  _144
REMARK   58  A    between atoms: _144  and  _145
REMARK   59  A    between atoms: _145  and  _146
REMARK   60  A    between atoms: _149  and  _151
REMARK   61  A    between atoms: _151  and  _152
REMARK   62  A    between atoms: _151  and  _154
REMARK   63  A    between atoms: _154  and  _155
REMARK   64  A    between atoms: _160  and  _162
REMARK   65  A    between atoms: _162  and  _163
REMARK   66  A    between atoms: _162  and  _165
REMARK   67  A    between atoms: _165  and  _166
REMARK   68  A    between atoms: _169  and  _171
REMARK   69  A    between atoms: _171  and  _172
REMARK   70  A    between atoms: _171  and  _174
REMARK   71  A    between atoms: _174  and  _175
REMARK   72  A    between atoms: _181  and  _183
REMARK   73  A    between atoms: _183  and  _184
REMARK   74  A    between atoms: _183  and  _186
REMARK   75  A    between atoms: _189  and  _191
REMARK   76  A    between atoms: _191  and  _192
REMARK   77  A    between atoms: _191  and  _194
REMARK   78  A    between atoms: _194  and  _195
REMARK   79  A    between atoms: _199  and  ZN_637
REMARK   80  A    between atoms: _200  and  _202
REMARK   81  A    between atoms: _202  and  _203
REMARK   82  A    between atoms: _202  and  _205
REMARK   83  A    between atoms: _205  and  _206
REMARK   84  A    between atoms: _206  and  _207
REMARK   85  A    between atoms: _210  and  _212
REMARK   86  A    between atoms: _212  and  _213
REMARK   87  A    between atoms: _212  and  _215
REMARK   88  A    between atoms: _215  and  _216
REMARK   89  A    between atoms: _219  and  _221
REMARK   90  A    between atoms: _221  and  _222
REMARK   91  A    between atoms: _221  and  _224
REMARK   92  A    between atoms: _224  and  _225
REMARK   93  A    between atoms: _229  and  ZN_637
REMARK   94  A    between atoms: _230  and  _232
REMARK   95  A    between atoms: _232  and  _233
REMARK   96  A    between atoms: _232  and  _235
REMARK   97  A    between atoms: _235  and  _236
REMARK   98  A    between atoms: _239  and  _241
REMARK   99  A    between atoms: _241  and  _242
REMARK  100  A    between atoms: _241  and  _244
REMARK  101  A    between atoms: _244  and  _245
REMARK  102  A    between atoms: _250  and  _252
REMARK  103  A    between atoms: _252  and  _253
REMARK  104  A    between atoms: _252  and  _255
REMARK  105  A    between atoms: _255  and  _256
REMARK  106  A    between atoms: _261  and  _263
REMARK  107  A    between atoms: _263  and  _264
REMARK  108  A    between atoms: _263  and  _266
REMARK  109  A    between atoms: _266  and  _267
REMARK  110  A    between atoms: _270  and  _272
REMARK  111  A    between atoms: _272  and  _273
REMARK  112  A    between atoms: _272  and  _275
REMARK  113  A    between atoms: _275  and  _276
REMARK  114  A    between atoms: _286  and  _288
REMARK  115  A    between atoms: _288  and  _289
REMARK  116  A    between atoms: _288  and  _291
REMARK  117  A    between atoms: _291  and  _292
REMARK  118  A    between atoms: _295  and  _297
REMARK  119  A    between atoms: _297  and  _298
REMARK  120  A    between atoms: _297  and  _300
REMARK  121  A    between atoms: _300  and  _301
REMARK  122  A    between atoms: _306  and  _308
REMARK  123  A    between atoms: _308  and  _309
REMARK  124  A    between atoms: _308  and  _311
REMARK  125  A    between atoms: _311  and  _312
REMARK  126  A    between atoms: _318  and  _320
REMARK  127  A    between atoms: _320  and  _321
REMARK  128  A    between atoms: _320  and  _323
REMARK  129  A    between atoms: _323  and  _324
REMARK  130  A    between atoms: _334  and  _336
REMARK  131  A    between atoms: _336  and  _337
REMARK  132  A    between atoms: _336  and  _339
REMARK  133  A    between atoms: _339  and  _340
REMARK  134  A    between atoms: _343  and  _345
REMARK  135  A    between atoms: _345  and  _346
REMARK  136  A    between atoms: _345  and  _348
REMARK  137  A    between atoms: _348  and  _349
REMARK  138  A    between atoms: _354  and  _356
REMARK  139  A    between atoms: _356  and  _357
REMARK  140  A    between atoms: _356  and  _359
REMARK  141  A    between atoms: _359  and  _360
REMARK  142  A    between atoms: _360  and  _361
REMARK  143  A    between atoms: _361  and  _362
REMARK  144  A    between atoms: _362  and  ZN_637
REMARK  145  A    between atoms: _364  and  _366
REMARK  146  A    between atoms: _366  and  _367
REMARK  147  A    between atoms: _366  and  _369
REMARK  148  A    between atoms: _369  and  _370
REMARK  149  A    between atoms: _373  and  _375
REMARK  150  A    between atoms: _375  and  _376
REMARK  151  A    between atoms: _375  and  _378
REMARK  152  A    between atoms: _381  and  _383
REMARK  153  A    between atoms: _383  and  _384
REMARK  154  A    between atoms: _383  and  _386
REMARK  155  A    between atoms: _386  and  _387
REMARK  156  A    between atoms: _387  and  _388
REMARK  157  A    between atoms: _391  and  _393
REMARK  158  A    between atoms: _393  and  _394
REMARK  159  A    between atoms: _393  and  _396
REMARK  160  A    between atoms: _396  and  _397
REMARK  161  A    between atoms: _404  and  _405
REMARK  162  A    between atoms: _410  and  _412
REMARK  163  A    between atoms: _412  and  _413
REMARK  164  A    between atoms: _412  and  _415
REMARK  165  A    between atoms: _415  and  _416
REMARK  166  A    between atoms: _422  and  _424
REMARK  167  A    between atoms: _424  and  _425
REMARK  168  A    between atoms: _424  and  _427
REMARK  169  A    between atoms: _427  and  _428
REMARK  170  A    between atoms: _431  and  _433
REMARK  171  A    between atoms: _433  and  _434
REMARK  172  A    between atoms: _433  and  _436
REMARK  173  A    between atoms: _436  and  _437
REMARK  174  A    between atoms: _437  and  _438
REMARK  175  A    between atoms: _438  and  _439
REMARK  176  A    between atoms: _439  and  _440
REMARK  177  A    between atoms: _444  and  _446
REMARK  178  A    between atoms: _446  and  _447
REMARK  179  A    between atoms: _446  and  _449
REMARK  180  A    between atoms: _449  and  _450
REMARK  181  A    between atoms: _453  and  _455
REMARK  182  A    between atoms: _455  and  _456
REMARK  183  A    between atoms: _455  and  _458
REMARK  184  A    between atoms: _461  and  _463
REMARK  185  A    between atoms: _463  and  _464
REMARK  186  A    between atoms: _463  and  _466
REMARK  187  A    between atoms: _469  and  _471
REMARK  188  A    between atoms: _471  and  _472
REMARK  189  A    between atoms: _471  and  _474
REMARK  190  A    between atoms: _474  and  _475
REMARK  191  A    between atoms: _478  and  _480
REMARK  192  A    between atoms: _480  and  _481
REMARK  193  A    between atoms: _480  and  _483
REMARK  194  A    between atoms: _483  and  _484
REMARK  195  A    between atoms: _487  and  _489
REMARK  196  A    between atoms: _489  and  _490
REMARK  197  A    between atoms: _489  and  _492
REMARK  198  A    between atoms: _492  and  _493
REMARK  199  A    between atoms: _496  and  _498
REMARK  200  A    between atoms: _498  and  _499
REMARK  201  A    between atoms: _498  and  _501
REMARK  202  A    between atoms: _501  and  _502
REMARK  203  A    between atoms: _506  and  _507
REMARK  204  A    between atoms: _512  and  _514
REMARK  205  A    between atoms: _514  and  _515
REMARK  206  A    between atoms: _514  and  _517
REMARK  207  A    between atoms: _517  and  _518
REMARK  208  A    between atoms: _521  and  _523
REMARK  209  A    between atoms: _523  and  _524
REMARK  210  A    between atoms: _523  and  _526
REMARK  211  A    between atoms: _529  and  _531
REMARK  212  A    between atoms: _531  and  _532
REMARK  213  A    between atoms: _535  and  _537
REMARK  214  A    between atoms: _537  and  _538
REMARK  215  A    between atoms: _537  and  _540
REMARK  216  A    between atoms: _540  and  _541
REMARK  217  A    between atoms: _546  and  _547
REMARK  218  A    between atoms: _549  and  _551
REMARK  219  A    between atoms: _551  and  _552
REMARK  220  A    between atoms: _551  and  _554
REMARK  221  A    between atoms: _554  and  _555
REMARK  222  A    between atoms: _557  and  _559
REMARK  223  A    between atoms: _559  and  _560
REMARK  224  A    between atoms: _559  and  _562
REMARK  225  A    between atoms: _562  and  _563
REMARK  226  A    between atoms: _565  and  _567
REMARK  227  A    between atoms: _567  and  _568
REMARK  228  A    between atoms: _567  and  _570
REMARK  229  A    between atoms: _574  and  _575
REMARK  230  A    between atoms: _580  and  _582
REMARK  231  A    between atoms: _582  and  _583
REMARK  232  A    between atoms: _582  and  _585
REMARK  233  A    between atoms: _585  and  _586
REMARK  234  A    between atoms: _591  and  _592
REMARK  235  A    between atoms: _594  and  _596
REMARK  236  A    between atoms: _596  and  _597
REMARK  237  A    between atoms: _596  and  _599
REMARK  238  A    between atoms: _599  and  _600
REMARK  239  A    between atoms: _600  and  _601
REMARK  240  A    between atoms: _601  and  _602
REMARK  241  A    between atoms: _611  and  _613
REMARK  242  A    between atoms: _613  and  _614
REMARK  243  A    between atoms: _613  and  _616
REMARK  244  A    between atoms: _616  and  _617
REMARK  245  A    between atoms: _617  and  _618
REMARK  246  A    between atoms: _620  and  _622
REMARK  247  A    between atoms: _622  and  _623
REMARK  248  A    between atoms: _622  and  _625
REMARK  249  A    between atoms: _628  and  _630
REMARK  250  A    between atoms: _630  and  _631
REMARK  251  A    between atoms: _630  and  _633
REMARK  252  A    between atoms: _633  and  _634
REMARK                            x       y       z     vdW  Elec       q    Type
REMARK                         _______ _______ _______ _____ _____    ______ ____
ROOT
ATOM      1  O   HOH     1      20.445  93.569  -3.597  0.00  0.00    +0.000 OA
ENDROOT
TORSDOF 0
REMARK  Name = ../refined-set-2016/3fh7/3fh7_pocket.pdb
REMARK  252 active torsions:
REMARK  status: ('A' for Active; 'I' for Inactive)
REMARK    1  A    between atoms: _1  and  _3
REMARK    2  A    between atoms: _3  and  _4
REMARK    3  A    between atoms: _3  and  _6
REMARK    4  A    between atoms: _8  and  _10
REMARK    5  A    between atoms: _10  and  _11
REMARK    6  A    between atoms: _10  and  _13
REMARK    7  A    between atoms: _13  and  _14
REMARK    8  A    between atoms: _16  and  _18
REMARK    9  A    between atoms: _18  and  _19
REMARK   10  A    between atoms: _18  and  _21
REMARK   11  A    between atoms: _21  and  _22
REMARK   12  A    between atoms: _22  and  _23
REMARK   13  A    between atoms: _28  and  _30
REMARK   14  A    between atoms: _30  and  _31
REMARK   15  A    between atoms: _30  and  _33
REMARK   16  A    between atoms: _35  and  _37
REMARK   17  A    between atoms: _37  and  _38
REMARK   18  A    between atoms: _37  and  _40
REMARK   19  A    between atoms: _40  and  _41
REMARK   20  A    between atoms: _41  and  _42
REMARK   21  A    between atoms: _47  and  _49
REMARK   22  A    between atoms: _49  and  _50
REMARK   23  A    between atoms: _53  and  _55
REMARK   24  A    between atoms: _55  and  _56
REMARK   25  A    between atoms: _55  and  _58
REMARK   26  A    between atoms: _58  and  _59
REMARK   27  A    between atoms: _62  and  _64
REMARK   28  A    between atoms: _64  and  _65
REMARK   29  A    between atoms: _64  and  _67
REMARK   30  A    between atoms: _67  and  _68
REMARK   31  A    between atoms: _73  and  _75
REMARK   32  A    between atoms: _75  and  _76
REMARK   33  A    between atoms: _75  and  _78
REMARK   34  A    between atoms: _78  and  _79
REMARK   35  A    between atoms: _84  and  _85
REMARK   36  A    between atoms: _87  and  _89
REMARK   37  A    between atoms: _89  and  _90
REMARK   38  A    between atoms: _89  and  _92
REMARK   39  A    between atoms: _92  and  _93
REMARK   40  A    between atoms: _100  and  _101
REMARK   41  A    between atoms: _106  and  _108
REMARK   42  A    between atoms: _108  and  _109
REMARK   43  A    between atoms: _108  and  _111
REMARK   44  A    between atoms: _111  and  _112
REMARK   45  A    between atoms: _117  and  _118
REMARK   46  A    between atoms: _120  and  _122
REMARK   47  A    between atoms: _122  and  _123
REMARK   48  A    between atoms: _125  and  _127
REMARK   49  A    between atoms: _127  and  _128
REMARK   50  A    between atoms: _130  and  _132
REMARK   51  A    between atoms: _132  and  _133
REMARK   52  A    between atoms: _132  and  _135
REMARK   53  A    between atoms: _135  and  _136
REMARK   54  A    between atoms: _136  and  _137
REMARK   55  A    between atoms: _139  and  _141
REMARK   56  A    between atoms: _141  and  _142
REMARK   57  A    between atoms: _141  and  _144
REMARK   58  A    between atoms: _144  and  _145
REMARK   59  A    between atoms: _145  and  _146
REMARK   60  A    between atoms: _149  and  _151
REMARK   61  A    between atoms: _151  and  _152
REMARK   62  A    between atoms: _151  and  _154
REMARK   63  A    between atoms: _154  and  _155
REMARK   64  A    between atoms: _160  and  _162
REMARK   65  A    between atoms: _162  and  _163
REMARK   66  A    between atoms: _162  and  _165
REMARK   67  A    between atoms: _165  and  _166
REMARK   68  A    between atoms: _169  and  _171
REMARK   69  A    between atoms: _171  and  _172
REMARK   70  A    between atoms: _171  and  _174
REMARK   71  A    between atoms: _174  and  _175
REMARK   72  A    between atoms: _181  and  _183
REMARK   73  A    between atoms: _183  and  _184
REMARK   74  A    between atoms: _183  and  _186
REMARK   75  A    between atoms: _189  and  _191
REMARK   76  A    between atoms: _191  and  _192
REMARK   77  A    between atoms: _191  and  _194
REMARK   78  A    between atoms: _194  and  _195
REMARK   79  A    between atoms: _199  and  ZN_637
REMARK   80  A    between atoms: _200  and  _202
REMARK   81  A    between atoms: _202  and  _203
REMARK   82  A    between atoms: _202  and  _205
REMARK   83  A    between atoms: _205  and  _206
REMARK   84  A    between atoms: _206  and  _207
REMARK   85  A    between atoms: _210  and  _212
REMARK   86  A    between atoms: _212  and  _213
REMARK   87  A    between atoms: _212  and  _215
REMARK   88  A    between atoms: _215  and  _216
REMARK   89  A    between atoms: _219  and  _221
REMARK   90  A    between atoms: _221  and  _222
REMARK   91  A    between atoms: _221  and  _224
REMARK   92  A    between atoms: _224  and  _225
REMARK   93  A    between atoms: _229  and  ZN_637
REMARK   94  A    between atoms: _230  and  _232
REMARK   95  A    between atoms: _232  and  _233
REMARK   96  A    between atoms: _232  and  _235
REMARK   97  A    between atoms: _235  and  _236
REMARK   98  A    between atoms: _239  and  _241
REMARK   99  A    between atoms: _241  and  _242
REMARK  100  A    between atoms: _241  and  _244
REMARK  101  A    between atoms: _244  and  _245
REMARK  102  A    between atoms: _250  and  _252
REMARK  103  A    between atoms: _252  and  _253
REMARK  104  A    between atoms: _252  and  _255
REMARK  105  A    between atoms: _255  and  _256
REMARK  106  A    between atoms: _261  and  _263
REMARK  107  A    between atoms: _263  and  _264
REMARK  108  A    between atoms: _263  and  _266
REMARK  109  A    between atoms: _266  and  _267
REMARK  110  A    between atoms: _270  and  _272
REMARK  111  A    between atoms: _272  and  _273
REMARK  112  A    between atoms: _272  and  _275
REMARK  113  A    between atoms: _275  and  _276
REMARK  114  A    between atoms: _286  and  _288
REMARK  115  A    between atoms: _288  and  _289
REMARK  116  A    between atoms: _288  and  _291
REMARK  117  A    between atoms: _291  and  _292
REMARK  118  A    between atoms: _295  and  _297
REMARK  119  A    between atoms: _297  and  _298
REMARK  120  A    between atoms: _297  and  _300
REMARK  121  A    between atoms: _300  and  _301
REMARK  122  A    between atoms: _306  and  _308
REMARK  123  A    between atoms: _308  and  _309
REMARK  124  A    between atoms: _308  and  _311
REMARK  125  A    between atoms: _311  and  _312
REMARK  126  A    between atoms: _318  and  _320
REMARK  127  A    between atoms: _320  and  _321
REMARK  128  A    between atoms: _320  and  _323
REMARK  129  A    between atoms: _323  and  _324
REMARK  130  A    between atoms: _334  and  _336
REMARK  131  A    between atoms: _336  and  _337
REMARK  132  A    between atoms: _336  and  _339
REMARK  133  A    between atoms: _339  and  _340
REMARK  134  A    between atoms: _343  and  _345
REMARK  135  A    between atoms: _345  and  _346
REMARK  136  A    between atoms: _345  and  _348
REMARK  137  A    between atoms: _348  and  _349
REMARK  138  A    between atoms: _354  and  _356
REMARK  139  A    between atoms: _356  and  _357
REMARK  140  A    between atoms: _356  and  _359
REMARK  141  A    between atoms: _359  and  _360
REMARK  142  A    between atoms: _360  and  _361
REMARK  143  A    between atoms: _361  and  _362
REMARK  144  A    between atoms: _362  and  ZN_637
REMARK  145  A    between atoms: _364  and  _366
REMARK  146  A    between atoms: _366  and  _367
REMARK  147  A    between atoms: _366  and  _369
REMARK  148  A    between atoms: _369  and  _370
REMARK  149  A    between atoms: _373  and  _375
REMARK  150  A    between atoms: _375  and  _376
REMARK  151  A    between atoms: _375  and  _378
REMARK  152  A    between atoms: _381  and  _383
REMARK  153  A    between atoms: _383  and  _384
REMARK  154  A    between atoms: _383  and  _386
REMARK  155  A    between atoms: _386  and  _387
REMARK  156  A    between atoms: _387  and  _388
REMARK  157  A    between atoms: _391  and  _393
REMARK  158  A    between atoms: _393  and  _394
REMARK  159  A    between atoms: _393  and  _396
REMARK  160  A    between atoms: _396  and  _397
REMARK  161  A    between atoms: _404  and  _405
REMARK  162  A    between atoms: _410  and  _412
REMARK  163  A    between atoms: _412  and  _413
REMARK  164  A    between atoms: _412  and  _415
REMARK  165  A    between atoms: _415  and  _416
REMARK  166  A    between atoms: _422  and  _424
REMARK  167  A    between atoms: _424  and  _425
REMARK  168  A    between atoms: _424  and  _427
REMARK  169  A    between atoms: _427  and  _428
REMARK  170  A    between atoms: _431  and  _433
REMARK  171  A    between atoms: _433  and  _434
REMARK  172  A    between atoms: _433  and  _436
REMARK  173  A    between atoms: _436  and  _437
REMARK  174  A    between atoms: _437  and  _438
REMARK  175  A    between atoms: _438  and  _439
REMARK  176  A    between atoms: _439  and  _440
REMARK  177  A    between atoms: _444  and  _446
REMARK  178  A    between atoms: _446  and  _447
REMARK  179  A    between atoms: _446  and  _449
REMARK  180  A    between atoms: _449  and  _450
REMARK  181  A    between atoms: _453  and  _455
REMARK  182  A    between atoms: _455  and  _456
REMARK  183  A    between atoms: _455  and  _458
REMARK  184  A    between atoms: _461  and  _463
REMARK  185  A    between atoms: _463  and  _464
REMARK  186  A    between atoms: _463  and  _466
REMARK  187  A    between atoms: _469  and  _471
REMARK  188  A    between atoms: _471  and  _472
REMARK  189  A    between atoms: _471  and  _474
REMARK  190  A    between atoms: _474  and  _475
REMARK  191  A    between atoms: _478  and  _480
REMARK  192  A    between atoms: _480  and  _481
REMARK  193  A    between atoms: _480  and  _483
REMARK  194  A    between atoms: _483  and  _484
REMARK  195  A    between atoms: _487  and  _489
REMARK  196  A    between atoms: _489  and  _490
REMARK  197  A    between atoms: _489  and  _492
REMARK  198  A    between atoms: _492  and  _493
REMARK  199  A    between atoms: _496  and  _498
REMARK  200  A    between atoms: _498  and  _499
REMARK  201  A    between atoms: _498  and  _501
REMARK  202  A    between atoms: _501  and  _502
REMARK  203  A    between atoms: _506  and  _507
REMARK  204  A    between atoms: _512  and  _514
REMARK  205  A    between atoms: _514  and  _515
REMARK  206  A    between atoms: _514  and  _517
REMARK  207  A    between atoms: _517  and  _518
REMARK  208  A    between atoms: _521  and  _523
REMARK  209  A    between atoms: _523  and  _524
REMARK  210  A    between atoms: _523  and  _526
REMARK  211  A    between atoms: _529  and  _531
REMARK  212  A    between atoms: _531  and  _532
REMARK  213  A    between atoms: _535  and  _537
REMARK  214  A    between atoms: _537  and  _538
REMARK  215  A    between atoms: _537  and  _540
REMARK  216  A    between atoms: _540  and  _541
REMARK  217  A    between atoms: _546  and  _547
REMARK  218  A    between atoms: _549  and  _551
REMARK  219  A    between atoms: _551  and  _552
REMARK  220  A    between atoms: _551  and  _554
REMARK  221  A    between atoms: _554  and  _555
REMARK  222  A    between atoms: _557  and  _559
REMARK  223  A    between atoms: _559  and  _560
REMARK  224  A    between atoms: _559  and  _562
REMARK  225  A    between atoms: _562  and  _563
REMARK  226  A    between atoms: _565  and  _567
REMARK  227  A    between atoms: _567  and  _568
REMARK  228  A    between atoms: _567  and  _570
REMARK  229  A    between atoms: _574  and  _575
REMARK  230  A    between atoms: _580  and  _582
REMARK  231  A    between atoms: _582  and  _583
REMARK  232  A    between atoms: _582  and  _585
REMARK  233  A    between atoms: _585  and  _586
REMARK  234  A    between atoms: _591  and  _592
REMARK  235  A    between atoms: _594  and  _596
REMARK  236  A    between atoms: _596  and  _597
REMARK  237  A    between atoms: _596  and  _599
REMARK  238  A    between atoms: _599  and  _600
REMARK  239  A    between atoms: _600  and  _601
REMARK  240  A    between atoms: _601  and  _602
REMARK  241  A    between atoms: _611  and  _613
REMARK  242  A    between atoms: _613  and  _614
REMARK  243  A    between atoms: _613  and  _616
REMARK  244  A    between atoms: _616  and  _617
REMARK  245  A    between atoms: _617  and  _618
REMARK  246  A    between atoms: _620  and  _622
REMARK  247  A    between atoms: _622  and  _623
REMARK  248  A    between atoms: _622  and  _625
REMARK  249  A    between atoms: _628  and  _630
REMARK  250  A    between atoms: _630  and  _631
REMARK  251  A    between atoms: _630  and  _633
REMARK  252  A    between atoms: _633  and  _634
REMARK                            x       y       z     vdW  Elec       q    Type
REMARK                         _______ _______ _______ _____ _____    ______ ____
ROOT
ATOM      1  O   HOH     1      35.371  79.342   0.116  0.00  0.00    +0.000 OA
ENDROOT
TORSDOF 0
REMARK  Name = ../refined-set-2016/3fh7/3fh7_pocket.pdb
REMARK  252 active torsions:
REMARK  status: ('A' for Active; 'I' for Inactive)
REMARK    1  A    between atoms: _1  and  _3
REMARK    2  A    between atoms: _3  and  _4
REMARK    3  A    between atoms: _3  and  _6
REMARK    4  A    between atoms: _8  and  _10
REMARK    5  A    between atoms: _10  and  _11
REMARK    6  A    between atoms: _10  and  _13
REMARK    7  A    between atoms: _13  and  _14
REMARK    8  A    between atoms: _16  and  _18
REMARK    9  A    between atoms: _18  and  _19
REMARK   10  A    between atoms: _18  and  _21
REMARK   11  A    between atoms: _21  and  _22
REMARK   12  A    between atoms: _22  and  _23
REMARK   13  A    between atoms: _28  and  _30
REMARK   14  A    between atoms: _30  and  _31
REMARK   15  A    between atoms: _30  and  _33
REMARK   16  A    between atoms: _35  and  _37
REMARK   17  A    between atoms: _37  and  _38
REMARK   18  A    between atoms: _37  and  _40
REMARK   19  A    between atoms: _40  and  _41
REMARK   20  A    between atoms: _41  and  _42
REMARK   21  A    between atoms: _47  and  _49
REMARK   22  A    between atoms: _49  and  _50
REMARK   23  A    between atoms: _53  and  _55
REMARK   24  A    between atoms: _55  and  _56
REMARK   25  A    between atoms: _55  and  _58
REMARK   26  A    between atoms: _58  and  _59
REMARK   27  A    between atoms: _62  and  _64
REMARK   28  A    between atoms: _64  and  _65
REMARK   29  A    between atoms: _64  and  _67
REMARK   30  A    between atoms: _67  and  _68
REMARK   31  A    between atoms: _73  and  _75
REMARK   32  A    between atoms: _75  and  _76
REMARK   33  A    between atoms: _75  and  _78
REMARK   34  A    between atoms: _78  and  _79
REMARK   35  A    between atoms: _84  and  _85
REMARK   36  A    between atoms: _87  and  _89
REMARK   37  A    between atoms: _89  and  _90
REMARK   38  A    between atoms: _89  and  _92
REMARK   39  A    between atoms: _92  and  _93
REMARK   40  A    between atoms: _100  and  _101
REMARK   41  A    between atoms: _106  and  _108
REMARK   42  A    between atoms: _108  and  _109
REMARK   43  A    between atoms: _108  and  _111
REMARK   44  A    between atoms: _111  and  _112
REMARK   45  A    between atoms: _117  and  _118
REMARK   46  A    between atoms: _120  and  _122
REMARK   47  A    between atoms: _122  and  _123
REMARK   48  A    between atoms: _125  and  _127
REMARK   49  A    between atoms: _127  and  _128
REMARK   50  A    between atoms: _130  and  _132
REMARK   51  A    between atoms: _132  and  _133
REMARK   52  A    between atoms: _132  and  _135
REMARK   53  A    between atoms: _135  and  _136
REMARK   54  A    between atoms: _136  and  _137
REMARK   55  A    between atoms: _139  and  _141
REMARK   56  A    between atoms: _141  and  _142
REMARK   57  A    between atoms: _141  and  _144
REMARK   58  A    between atoms: _144  and  _145
REMARK   59  A    between atoms: _145  and  _146
REMARK   60  A    between atoms: _149  and  _151
REMARK   61  A    between atoms: _151  and  _152
REMARK   62  A    between atoms: _151  and  _154
REMARK   63  A    between atoms: _154  and  _155
REMARK   64  A    between atoms: _160  and  _162
REMARK   65  A    between atoms: _162  and  _163
REMARK   66  A    between atoms: _162  and  _165
REMARK   67  A    between atoms: _165  and  _166
REMARK   68  A    between atoms: _169  and  _171
REMARK   69  A    between atoms: _171  and  _172
REMARK   70  A    between atoms: _171  and  _174
REMARK   71  A    between atoms: _174  and  _175
REMARK   72  A    between atoms: _181  and  _183
REMARK   73  A    between atoms: _183  and  _184
REMARK   74  A    between atoms: _183  and  _186
REMARK   75  A    between atoms: _189  and  _191
REMARK   76  A    between atoms: _191  and  _192
REMARK   77  A    between atoms: _191  and  _194
REMARK   78  A    between atoms: _194  and  _195
REMARK   79  A    between atoms: _199  and  ZN_637
REMARK   80  A    between atoms: _200  and  _202
REMARK   81  A    between atoms: _202  and  _203
REMARK   82  A    between atoms: _202  and  _205
REMARK   83  A    between atoms: _205  and  _206
REMARK   84  A    between atoms: _206  and  _207
REMARK   85  A    between atoms: _210  and  _212
REMARK   86  A    between atoms: _212  and  _213
REMARK   87  A    between atoms: _212  and  _215
REMARK   88  A    between atoms: _215  and  _216
REMARK   89  A    between atoms: _219  and  _221
REMARK   90  A    between atoms: _221  and  _222
REMARK   91  A    between atoms: _221  and  _224
REMARK   92  A    between atoms: _224  and  _225
REMARK   93  A    between atoms: _229  and  ZN_637
REMARK   94  A    between atoms: _230  and  _232
REMARK   95  A    between atoms: _232  and  _233
REMARK   96  A    between atoms: _232  and  _235
REMARK   97  A    between atoms: _235  and  _236
REMARK   98  A    between atoms: _239  and  _241
REMARK   99  A    between atoms: _241  and  _242
REMARK  100  A    between atoms: _241  and  _244
REMARK  101  A    between atoms: _244  and  _245
REMARK  102  A    between atoms: _250  and  _252
REMARK  103  A    between atoms: _252  and  _253
REMARK  104  A    between atoms: _252  and  _255
REMARK  105  A    between atoms: _255  and  _256
REMARK  106  A    between atoms: _261  and  _263
REMARK  107  A    between atoms: _263  and  _264
REMARK  108  A    between atoms: _263  and  _266
REMARK  109  A    between atoms: _266  and  _267
REMARK  110  A    between atoms: _270  and  _272
REMARK  111  A    between atoms: _272  and  _273
REMARK  112  A    between atoms: _272  and  _275
REMARK  113  A    between atoms: _275  and  _276
REMARK  114  A    between atoms: _286  and  _288
REMARK  115  A    between atoms: _288  and  _289
REMARK  116  A    between atoms: _288  and  _291
REMARK  117  A    between atoms: _291  and  _292
REMARK  118  A    between atoms: _295  and  _297
REMARK  119  A    between atoms: _297  and  _298
REMARK  120  A    between atoms: _297  and  _300
REMARK  121  A    between atoms: _300  and  _301
REMARK  122  A    between atoms: _306  and  _308
REMARK  123  A    between atoms: _308  and  _309
REMARK  124  A    between atoms: _308  and  _311
REMARK  125  A    between atoms: _311  and  _312
REMARK  126  A    between atoms: _318  and  _320
REMARK  127  A    between atoms: _320  and  _321
REMARK  128  A    between atoms: _320  and  _323
REMARK  129  A    between atoms: _323  and  _324
REMARK  130  A    between atoms: _334  and  _336
REMARK  131  A    between atoms: _336  and  _337
REMARK  132  A    between atoms: _336  and  _339
REMARK  133  A    between atoms: _339  and  _340
REMARK  134  A    between atoms: _343  and  _345
REMARK  135  A    between atoms: _345  and  _346
REMARK  136  A    between atoms: _345  and  _348
REMARK  137  A    between atoms: _348  and  _349
REMARK  138  A    between atoms: _354  and  _356
REMARK  139  A    between atoms: _356  and  _357
REMARK  140  A    between atoms: _356  and  _359
REMARK  141  A    between atoms: _359  and  _360
REMARK  142  A    between atoms: _360  and  _361
REMARK  143  A    between atoms: _361  and  _362
REMARK  144  A    between atoms: _362  and  ZN_637
REMARK  145  A    between atoms: _364  and  _366
REMARK  146  A    between atoms: _366  and  _367
REMARK  147  A    between atoms: _366  and  _369
REMARK  148  A    between atoms: _369  and  _370
REMARK  149  A    between atoms: _373  and  _375
REMARK  150  A    between atoms: _375  and  _376
REMARK  151  A    between atoms: _375  and  _378
REMARK  152  A    between atoms: _381  and  _383
REMARK  153  A    between atoms: _383  and  _384
REMARK  154  A    between atoms: _383  and  _386
REMARK  155  A    between atoms: _386  and  _387
REMARK  156  A    between atoms: _387  and  _388
REMARK  157  A    between atoms: _391  and  _393
REMARK  158  A    between atoms: _393  and  _394
REMARK  159  A    between atoms: _393  and  _396
REMARK  160  A    between atoms: _396  and  _397
REMARK  161  A    between atoms: _404  and  _405
REMARK  162  A    between atoms: _410  and  _412
REMARK  163  A    between atoms: _412  and  _413
REMARK  164  A    between atoms: _412  and  _415
REMARK  165  A    between atoms: _415  and  _416
REMARK  166  A    between atoms: _422  and  _424
REMARK  167  A    between atoms: _424  and  _425
REMARK  168  A    between atoms: _424  and  _427
REMARK  169  A    between atoms: _427  and  _428
REMARK  170  A    between atoms: _431  and  _433
REMARK  171  A    between atoms: _433  and  _434
REMARK  172  A    between atoms: _433  and  _436
REMARK  173  A    between atoms: _436  and  _437
REMARK  174  A    between atoms: _437  and  _438
REMARK  175  A    between atoms: _438  and  _439
REMARK  176  A    between atoms: _439  and  _440
REMARK  177  A    between atoms: _444  and  _446
REMARK  178  A    between atoms: _446  and  _447
REMARK  179  A    between atoms: _446  and  _449
REMARK  180  A    between atoms: _449  and  _450
REMARK  181  A    between atoms: _453  and  _455
REMARK  182  A    between atoms: _455  and  _456
REMARK  183  A    between atoms: _455  and  _458
REMARK  184  A    between atoms: _461  and  _463
REMARK  185  A    between atoms: _463  and  _464
REMARK  186  A    between atoms: _463  and  _466
REMARK  187  A    between atoms: _469  and  _471
REMARK  188  A    between atoms: _471  and  _472
REMARK  189  A    between atoms: _471  and  _474
REMARK  190  A    between atoms: _474  and  _475
REMARK  191  A    between atoms: _478  and  _480
REMARK  192  A    between atoms: _480  and  _481
REMARK  193  A    between atoms: _480  and  _483
REMARK  194  A    between atoms: _483  and  _484
REMARK  195  A    between atoms: _487  and  _489
REMARK  196  A    between atoms: _489  and  _490
REMARK  197  A    between atoms: _489  and  _492
REMARK  198  A    between atoms: _492  and  _493
REMARK  199  A    between atoms: _496  and  _498
REMARK  200  A    between atoms: _498  and  _499
REMARK  201  A    between atoms: _498  and  _501
REMARK  202  A    between atoms: _501  and  _502
REMARK  203  A    between atoms: _506  and  _507
REMARK  204  A    between atoms: _512  and  _514
REMARK  205  A    between atoms: _514  and  _515
REMARK  206  A    between atoms: _514  and  _517
REMARK  207  A    between atoms: _517  and  _518
REMARK  208  A    between atoms: _521  and  _523
REMARK  209  A    between atoms: _523  and  _524
REMARK  210  A    between atoms: _523  and  _526
REMARK  211  A    between atoms: _529  and  _531
REMARK  212  A    between atoms: _531  and  _532
REMARK  213  A    between atoms: _535  and  _537
REMARK  214  A    between atoms: _537  and  _538
REMARK  215  A    between atoms: _537  and  _540
REMARK  216  A    between atoms: _540  and  _541
REMARK  217  A    between atoms: _546  and  _547
REMARK  218  A    between atoms: _549  and  _551
REMARK  219  A    between atoms: _551  and  _552
REMARK  220  A    between atoms: _551  and  _554
REMARK  221  A    between atoms: _554  and  _555
REMARK  222  A    between atoms: _557  and  _559
REMARK  223  A    between atoms: _559  and  _560
REMARK  224  A    between atoms: _559  and  _562
REMARK  225  A    between atoms: _562  and  _563
REMARK  226  A    between atoms: _565  and  _567
REMARK  227  A    between atoms: _567  and  _568
REMARK  228  A    between atoms: _567  and  _570
REMARK  229  A    between atoms: _574  and  _575
REMARK  230  A    between atoms: _580  and  _582
REMARK  231  A    between atoms: _582  and  _583
REMARK  232  A    between atoms: _582  and  _585
REMARK  233  A    between atoms: _585  and  _586
REMARK  234  A    between atoms: _591  and  _592
REMARK  235  A    between atoms: _594  and  _596
REMARK  236  A    between atoms: _596  and  _597
REMARK  237  A    between atoms: _596  and  _599
REMARK  238  A    between atoms: _599  and  _600
REMARK  239  A    between atoms: _600  and  _601
REMARK  240  A    between atoms: _601  and  _602
REMARK  241  A    between atoms: _611  and  _613
REMARK  242  A    between atoms: _613  and  _614
REMARK  243  A    between atoms: _613  and  _616
REMARK  244  A    between atoms: _616  and  _617
REMARK  245  A    between atoms: _617  and  _618
REMARK  246  A    between atoms: _620  and  _622
REMARK  247  A    between atoms: _622  and  _623
REMARK  248  A    between atoms: _622  and  _625
REMARK  249  A    between atoms: _628  and  _630
REMARK  250  A    between atoms: _630  and  _631
REMARK  251  A    between atoms: _630  and  _633
REMARK  252  A    between atoms: _633  and  _634
REMARK                            x       y       z     vdW  Elec       q    Type
REMARK                         _______ _______ _______ _____ _____    ______ ____
ROOT
ATOM      1  O   HOH     1      26.923  79.252   4.693  0.00  0.00    +0.000 OA
ENDROOT
TORSDOF 0
REMARK  Name = ../refined-set-2016/3fh7/3fh7_pocket.pdb
REMARK  252 active torsions:
REMARK  status: ('A' for Active; 'I' for Inactive)
REMARK    1  A    between atoms: _1  and  _3
REMARK    2  A    between atoms: _3  and  _4
REMARK    3  A    between atoms: _3  and  _6
REMARK    4  A    between atoms: _8  and  _10
REMARK    5  A    between atoms: _10  and  _11
REMARK    6  A    between atoms: _10  and  _13
REMARK    7  A    between atoms: _13  and  _14
REMARK    8  A    between atoms: _16  and  _18
REMARK    9  A    between atoms: _18  and  _19
REMARK   10  A    between atoms: _18  and  _21
REMARK   11  A    between atoms: _21  and  _22
REMARK   12  A    between atoms: _22  and  _23
REMARK   13  A    between atoms: _28  and  _30
REMARK   14  A    between atoms: _30  and  _31
REMARK   15  A    between atoms: _30  and  _33
REMARK   16  A    between atoms: _35  and  _37
REMARK   17  A    between atoms: _37  and  _38
REMARK   18  A    between atoms: _37  and  _40
REMARK   19  A    between atoms: _40  and  _41
REMARK   20  A    between atoms: _41  and  _42
REMARK   21  A    between atoms: _47  and  _49
REMARK   22  A    between atoms: _49  and  _50
REMARK   23  A    between atoms: _53  and  _55
REMARK   24  A    between atoms: _55  and  _56
REMARK   25  A    between atoms: _55  and  _58
REMARK   26  A    between atoms: _58  and  _59
REMARK   27  A    between atoms: _62  and  _64
REMARK   28  A    between atoms: _64  and  _65
REMARK   29  A    between atoms: _64  and  _67
REMARK   30  A    between atoms: _67  and  _68
REMARK   31  A    between atoms: _73  and  _75
REMARK   32  A    between atoms: _75  and  _76
REMARK   33  A    between atoms: _75  and  _78
REMARK   34  A    between atoms: _78  and  _79
REMARK   35  A    between atoms: _84  and  _85
REMARK   36  A    between atoms: _87  and  _89
REMARK   37  A    between atoms: _89  and  _90
REMARK   38  A    between atoms: _89  and  _92
REMARK   39  A    between atoms: _92  and  _93
REMARK   40  A    between atoms: _100  and  _101
REMARK   41  A    between atoms: _106  and  _108
REMARK   42  A    between atoms: _108  and  _109
REMARK   43  A    between atoms: _108  and  _111
REMARK   44  A    between atoms: _111  and  _112
REMARK   45  A    between atoms: _117  and  _118
REMARK   46  A    between atoms: _120  and  _122
REMARK   47  A    between atoms: _122  and  _123
REMARK   48  A    between atoms: _125  and  _127
REMARK   49  A    between atoms: _127  and  _128
REMARK   50  A    between atoms: _130  and  _132
REMARK   51  A    between atoms: _132  and  _133
REMARK   52  A    between atoms: _132  and  _135
REMARK   53  A    between atoms: _135  and  _136
REMARK   54  A    between atoms: _136  and  _137
REMARK   55  A    between atoms: _139  and  _141
REMARK   56  A    between atoms: _141  and  _142
REMARK   57  A    between atoms: _141  and  _144
REMARK   58  A    between atoms: _144  and  _145
REMARK   59  A    between atoms: _145  and  _146
REMARK   60  A    between atoms: _149  and  _151
REMARK   61  A    between atoms: _151  and  _152
REMARK   62  A    between atoms: _151  and  _154
REMARK   63  A    between atoms: _154  and  _155
REMARK   64  A    between atoms: _160  and  _162
REMARK   65  A    between atoms: _162  and  _163
REMARK   66  A    between atoms: _162  and  _165
REMARK   67  A    between atoms: _165  and  _166
REMARK   68  A    between atoms: _169  and  _171
REMARK   69  A    between atoms: _171  and  _172
REMARK   70  A    between atoms: _171  and  _174
REMARK   71  A    between atoms: _174  and  _175
REMARK   72  A    between atoms: _181  and  _183
REMARK   73  A    between atoms: _183  and  _184
REMARK   74  A    between atoms: _183  and  _186
REMARK   75  A    between atoms: _189  and  _191
REMARK   76  A    between atoms: _191  and  _192
REMARK   77  A    between atoms: _191  and  _194
REMARK   78  A    between atoms: _194  and  _195
REMARK   79  A    between atoms: _199  and  ZN_637
REMARK   80  A    between atoms: _200  and  _202
REMARK   81  A    between atoms: _202  and  _203
REMARK   82  A    between atoms: _202  and  _205
REMARK   83  A    between atoms: _205  and  _206
REMARK   84  A    between atoms: _206  and  _207
REMARK   85  A    between atoms: _210  and  _212
REMARK   86  A    between atoms: _212  and  _213
REMARK   87  A    between atoms: _212  and  _215
REMARK   88  A    between atoms: _215  and  _216
REMARK   89  A    between atoms: _219  and  _221
REMARK   90  A    between atoms: _221  and  _222
REMARK   91  A    between atoms: _221  and  _224
REMARK   92  A    between atoms: _224  and  _225
REMARK   93  A    between atoms: _229  and  ZN_637
REMARK   94  A    between atoms: _230  and  _232
REMARK   95  A    between atoms: _232  and  _233
REMARK   96  A    between atoms: _232  and  _235
REMARK   97  A    between atoms: _235  and  _236
REMARK   98  A    between atoms: _239  and  _241
REMARK   99  A    between atoms: _241  and  _242
REMARK  100  A    between atoms: _241  and  _244
REMARK  101  A    between atoms: _244  and  _245
REMARK  102  A    between atoms: _250  and  _252
REMARK  103  A    between atoms: _252  and  _253
REMARK  104  A    between atoms: _252  and  _255
REMARK  105  A    between atoms: _255  and  _256
REMARK  106  A    between atoms: _261  and  _263
REMARK  107  A    between atoms: _263  and  _264
REMARK  108  A    between atoms: _263  and  _266
REMARK  109  A    between atoms: _266  and  _267
REMARK  110  A    between atoms: _270  and  _272
REMARK  111  A    between atoms: _272  and  _273
REMARK  112  A    between atoms: _272  and  _275
REMARK  113  A    between atoms: _275  and  _276
REMARK  114  A    between atoms: _286  and  _288
REMARK  115  A    between atoms: _288  and  _289
REMARK  116  A    between atoms: _288  and  _291
REMARK  117  A    between atoms: _291  and  _292
REMARK  118  A    between atoms: _295  and  _297
REMARK  119  A    between atoms: _297  and  _298
REMARK  120  A    between atoms: _297  and  _300
REMARK  121  A    between atoms: _300  and  _301
REMARK  122  A    between atoms: _306  and  _308
REMARK  123  A    between atoms: _308  and  _309
REMARK  124  A    between atoms: _308  and  _311
REMARK  125  A    between atoms: _311  and  _312
REMARK  126  A    between atoms: _318  and  _320
REMARK  127  A    between atoms: _320  and  _321
REMARK  128  A    between atoms: _320  and  _323
REMARK  129  A    between atoms: _323  and  _324
REMARK  130  A    between atoms: _334  and  _336
REMARK  131  A    between atoms: _336  and  _337
REMARK  132  A    between atoms: _336  and  _339
REMARK  133  A    between atoms: _339  and  _340
REMARK  134  A    between atoms: _343  and  _345
REMARK  135  A    between atoms: _345  and  _346
REMARK  136  A    between atoms: _345  and  _348
REMARK  137  A    between atoms: _348  and  _349
REMARK  138  A    between atoms: _354  and  _356
REMARK  139  A    between atoms: _356  and  _357
REMARK  140  A    between atoms: _356  and  _359
REMARK  141  A    between atoms: _359  and  _360
REMARK  142  A    between atoms: _360  and  _361
REMARK  143  A    between atoms: _361  and  _362
REMARK  144  A    between atoms: _362  and  ZN_637
REMARK  145  A    between atoms: _364  and  _366
REMARK  146  A    between atoms: _366  and  _367
REMARK  147  A    between atoms: _366  and  _369
REMARK  148  A    between atoms: _369  and  _370
REMARK  149  A    between atoms: _373  and  _375
REMARK  150  A    between atoms: _375  and  _376
REMARK  151  A    between atoms: _375  and  _378
REMARK  152  A    between atoms: _381  and  _383
REMARK  153  A    between atoms: _383  and  _384
REMARK  154  A    between atoms: _383  and  _386
REMARK  155  A    between atoms: _386  and  _387
REMARK  156  A    between atoms: _387  and  _388
REMARK  157  A    between atoms: _391  and  _393
REMARK  158  A    between atoms: _393  and  _394
REMARK  159  A    between atoms: _393  and  _396
REMARK  160  A    between atoms: _396  and  _397
REMARK  161  A    between atoms: _404  and  _405
REMARK  162  A    between atoms: _410  and  _412
REMARK  163  A    between atoms: _412  and  _413
REMARK  164  A    between atoms: _412  and  _415
REMARK  165  A    between atoms: _415  and  _416
REMARK  166  A    between atoms: _422  and  _424
REMARK  167  A    between atoms: _424  and  _425
REMARK  168  A    between atoms: _424  and  _427
REMARK  169  A    between atoms: _427  and  _428
REMARK  170  A    between atoms: _431  and  _433
REMARK  171  A    between atoms: _433  and  _434
REMARK  172  A    between atoms: _433  and  _436
REMARK  173  A    between atoms: _436  and  _437
REMARK  174  A    between atoms: _437  and  _438
REMARK  175  A    between atoms: _438  and  _439
REMARK  176  A    between atoms: _439  and  _440
REMARK  177  A    between atoms: _444  and  _446
REMARK  178  A    between atoms: _446  and  _447
REMARK  179  A    between atoms: _446  and  _449
REMARK  180  A    between atoms: _449  and  _450
REMARK  181  A    between atoms: _453  and  _455
REMARK  182  A    between atoms: _455  and  _456
REMARK  183  A    between atoms: _455  and  _458
REMARK  184  A    between atoms: _461  and  _463
REMARK  185  A    between atoms: _463  and  _464
REMARK  186  A    between atoms: _463  and  _466
REMARK  187  A    between atoms: _469  and  _471
REMARK  188  A    between atoms: _471  and  _472
REMARK  189  A    between atoms: _471  and  _474
REMARK  190  A    between atoms: _474  and  _475
REMARK  191  A    between atoms: _478  and  _480
REMARK  192  A    between atoms: _480  and  _481
REMARK  193  A    between atoms: _480  and  _483
REMARK  194  A    between atoms: _483  and  _484
REMARK  195  A    between atoms: _487  and  _489
REMARK  196  A    between atoms: _489  and  _490
REMARK  197  A    between atoms: _489  and  _492
REMARK  198  A    between atoms: _492  and  _493
REMARK  199  A    between atoms: _496  and  _498
REMARK  200  A    between atoms: _498  and  _499
REMARK  201  A    between atoms: _498  and  _501
REMARK  202  A    between atoms: _501  and  _502
REMARK  203  A    between atoms: _506  and  _507
REMARK  204  A    between atoms: _512  and  _514
REMARK  205  A    between atoms: _514  and  _515
REMARK  206  A    between atoms: _514  and  _517
REMARK  207  A    between atoms: _517  and  _518
REMARK  208  A    between atoms: _521  and  _523
REMARK  209  A    between atoms: _523  and  _524
REMARK  210  A    between atoms: _523  and  _526
REMARK  211  A    between atoms: _529  and  _531
REMARK  212  A    between atoms: _531  and  _532
REMARK  213  A    between atoms: _535  and  _537
REMARK  214  A    between atoms: _537  and  _538
REMARK  215  A    between atoms: _537  and  _540
REMARK  216  A    between atoms: _540  and  _541
REMARK  217  A    between atoms: _546  and  _547
REMARK  218  A    between atoms: _549  and  _551
REMARK  219  A    between atoms: _551  and  _552
REMARK  220  A    between atoms: _551  and  _554
REMARK  221  A    between atoms: _554  and  _555
REMARK  222  A    between atoms: _557  and  _559
REMARK  223  A    between atoms: _559  and  _560
REMARK  224  A    between atoms: _559  and  _562
REMARK  225  A    between atoms: _562  and  _563
REMARK  226  A    between atoms: _565  and  _567
REMARK  227  A    between atoms: _567  and  _568
REMARK  228  A    between atoms: _567  and  _570
REMARK  229  A    between atoms: _574  and  _575
REMARK  230  A    between atoms: _580  and  _582
REMARK  231  A    between atoms: _582  and  _583
REMARK  232  A    between atoms: _582  and  _585
REMARK  233  A    between atoms: _585  and  _586
REMARK  234  A    between atoms: _591  and  _592
REMARK  235  A    between atoms: _594  and  _596
REMARK  236  A    between atoms: _596  and  _597
REMARK  237  A    between atoms: _596  and  _599
REMARK  238  A    between atoms: _599  and  _600
REMARK  239  A    between atoms: _600  and  _601
REMARK  240  A    between atoms: _601  and  _602
REMARK  241  A    between atoms: _611  and  _613
REMARK  242  A    between atoms: _613  and  _614
REMARK  243  A    between atoms: _613  and  _616
REMARK  244  A    between atoms: _616  and  _617
REMARK  245  A    between atoms: _617  and  _618
REMARK  246  A    between atoms: _620  and  _622
REMARK  247  A    between atoms: _622  and  _623
REMARK  248  A    between atoms: _622  and  _625
REMARK  249  A    between atoms: _628  and  _630
REMARK  250  A    between atoms: _630  and  _631
REMARK  251  A    between atoms: _630  and  _633
REMARK  252  A    between atoms: _633  and  _634
REMARK                            x       y       z     vdW  Elec       q    Type
REMARK                         _______ _______ _______ _____ _____    ______ ____
ROOT
ATOM      1  O   HOH     1      35.722  79.487  -2.265  0.00  0.00    +0.000 OA
ENDROOT
TORSDOF 0
REMARK  Name = ../refined-set-2016/3fh7/3fh7_pocket.pdb
REMARK  252 active torsions:
REMARK  status: ('A' for Active; 'I' for Inactive)
REMARK    1  A    between atoms: _1  and  _3
REMARK    2  A    between atoms: _3  and  _4
REMARK    3  A    between atoms: _3  and  _6
REMARK    4  A    between atoms: _8  and  _10
REMARK    5  A    between atoms: _10  and  _11
REMARK    6  A    between atoms: _10  and  _13
REMARK    7  A    between atoms: _13  and  _14
REMARK    8  A    between atoms: _16  and  _18
REMARK    9  A    between atoms: _18  and  _19
REMARK   10  A    between atoms: _18  and  _21
REMARK   11  A    between atoms: _21  and  _22
REMARK   12  A    between atoms: _22  and  _23
REMARK   13  A    between atoms: _28  and  _30
REMARK   14  A    between atoms: _30  and  _31
REMARK   15  A    between atoms: _30  and  _33
REMARK   16  A    between atoms: _35  and  _37
REMARK   17  A    between atoms: _37  and  _38
REMARK   18  A    between atoms: _37  and  _40
REMARK   19  A    between atoms: _40  and  _41
REMARK   20  A    between atoms: _41  and  _42
REMARK   21  A    between atoms: _47  and  _49
REMARK   22  A    between atoms: _49  and  _50
REMARK   23  A    between atoms: _53  and  _55
REMARK   24  A    between atoms: _55  and  _56
REMARK   25  A    between atoms: _55  and  _58
REMARK   26  A    between atoms: _58  and  _59
REMARK   27  A    between atoms: _62  and  _64
REMARK   28  A    between atoms: _64  and  _65
REMARK   29  A    between atoms: _64  and  _67
REMARK   30  A    between atoms: _67  and  _68
REMARK   31  A    between atoms: _73  and  _75
REMARK   32  A    between atoms: _75  and  _76
REMARK   33  A    between atoms: _75  and  _78
REMARK   34  A    between atoms: _78  and  _79
REMARK   35  A    between atoms: _84  and  _85
REMARK   36  A    between atoms: _87  and  _89
REMARK   37  A    between atoms: _89  and  _90
REMARK   38  A    between atoms: _89  and  _92
REMARK   39  A    between atoms: _92  and  _93
REMARK   40  A    between atoms: _100  and  _101
REMARK   41  A    between atoms: _106  and  _108
REMARK   42  A    between atoms: _108  and  _109
REMARK   43  A    between atoms: _108  and  _111
REMARK   44  A    between atoms: _111  and  _112
REMARK   45  A    between atoms: _117  and  _118
REMARK   46  A    between atoms: _120  and  _122
REMARK   47  A    between atoms: _122  and  _123
REMARK   48  A    between atoms: _125  and  _127
REMARK   49  A    between atoms: _127  and  _128
REMARK   50  A    between atoms: _130  and  _132
REMARK   51  A    between atoms: _132  and  _133
REMARK   52  A    between atoms: _132  and  _135
REMARK   53  A    between atoms: _135  and  _136
REMARK   54  A    between atoms: _136  and  _137
REMARK   55  A    between atoms: _139  and  _141
REMARK   56  A    between atoms: _141  and  _142
REMARK   57  A    between atoms: _141  and  _144
REMARK   58  A    between atoms: _144  and  _145
REMARK   59  A    between atoms: _145  and  _146
REMARK   60  A    between atoms: _149  and  _151
REMARK   61  A    between atoms: _151  and  _152
REMARK   62  A    between atoms: _151  and  _154
REMARK   63  A    between atoms: _154  and  _155
REMARK   64  A    between atoms: _160  and  _162
REMARK   65  A    between atoms: _162  and  _163
REMARK   66  A    between atoms: _162  and  _165
REMARK   67  A    between atoms: _165  and  _166
REMARK   68  A    between atoms: _169  and  _171
REMARK   69  A    between atoms: _171  and  _172
REMARK   70  A    between atoms: _171  and  _174
REMARK   71  A    between atoms: _174  and  _175
REMARK   72  A    between atoms: _181  and  _183
REMARK   73  A    between atoms: _183  and  _184
REMARK   74  A    between atoms: _183  and  _186
REMARK   75  A    between atoms: _189  and  _191
REMARK   76  A    between atoms: _191  and  _192
REMARK   77  A    between atoms: _191  and  _194
REMARK   78  A    between atoms: _194  and  _195
REMARK   79  A    between atoms: _199  and  ZN_637
REMARK   80  A    between atoms: _200  and  _202
REMARK   81  A    between atoms: _202  and  _203
REMARK   82  A    between atoms: _202  and  _205
REMARK   83  A    between atoms: _205  and  _206
REMARK   84  A    between atoms: _206  and  _207
REMARK   85  A    between atoms: _210  and  _212
REMARK   86  A    between atoms: _212  and  _213
REMARK   87  A    between atoms: _212  and  _215
REMARK   88  A    between atoms: _215  and  _216
REMARK   89  A    between atoms: _219  and  _221
REMARK   90  A    between atoms: _221  and  _222
REMARK   91  A    between atoms: _221  and  _224
REMARK   92  A    between atoms: _224  and  _225
REMARK   93  A    between atoms: _229  and  ZN_637
REMARK   94  A    between atoms: _230  and  _232
REMARK   95  A    between atoms: _232  and  _233
REMARK   96  A    between atoms: _232  and  _235
REMARK   97  A    between atoms: _235  and  _236
REMARK   98  A    between atoms: _239  and  _241
REMARK   99  A    between atoms: _241  and  _242
REMARK  100  A    between atoms: _241  and  _244
REMARK  101  A    between atoms: _244  and  _245
REMARK  102  A    between atoms: _250  and  _252
REMARK  103  A    between atoms: _252  and  _253
REMARK  104  A    between atoms: _252  and  _255
REMARK  105  A    between atoms: _255  and  _256
REMARK  106  A    between atoms: _261  and  _263
REMARK  107  A    between atoms: _263  and  _264
REMARK  108  A    between atoms: _263  and  _266
REMARK  109  A    between atoms: _266  and  _267
REMARK  110  A    between atoms: _270  and  _272
REMARK  111  A    between atoms: _272  and  _273
REMARK  112  A    between atoms: _272  and  _275
REMARK  113  A    between atoms: _275  and  _276
REMARK  114  A    between atoms: _286  and  _288
REMARK  115  A    between atoms: _288  and  _289
REMARK  116  A    between atoms: _288  and  _291
REMARK  117  A    between atoms: _291  and  _292
REMARK  118  A    between atoms: _295  and  _297
REMARK  119  A    between atoms: _297  and  _298
REMARK  120  A    between atoms: _297  and  _300
REMARK  121  A    between atoms: _300  and  _301
REMARK  122  A    between atoms: _306  and  _308
REMARK  123  A    between atoms: _308  and  _309
REMARK  124  A    between atoms: _308  and  _311
REMARK  125  A    between atoms: _311  and  _312
REMARK  126  A    between atoms: _318  and  _320
REMARK  127  A    between atoms: _320  and  _321
REMARK  128  A    between atoms: _320  and  _323
REMARK  129  A    between atoms: _323  and  _324
REMARK  130  A    between atoms: _334  and  _336
REMARK  131  A    between atoms: _336  and  _337
REMARK  132  A    between atoms: _336  and  _339
REMARK  133  A    between atoms: _339  and  _340
REMARK  134  A    between atoms: _343  and  _345
REMARK  135  A    between atoms: _345  and  _346
REMARK  136  A    between atoms: _345  and  _348
REMARK  137  A    between atoms: _348  and  _349
REMARK  138  A    between atoms: _354  and  _356
REMARK  139  A    between atoms: _356  and  _357
REMARK  140  A    between atoms: _356  and  _359
REMARK  141  A    between atoms: _359  and  _360
REMARK  142  A    between atoms: _360  and  _361
REMARK  143  A    between atoms: _361  and  _362
REMARK  144  A    between atoms: _362  and  ZN_637
REMARK  145  A    between atoms: _364  and  _366
REMARK  146  A    between atoms: _366  and  _367
REMARK  147  A    between atoms: _366  and  _369
REMARK  148  A    between atoms: _369  and  _370
REMARK  149  A    between atoms: _373  and  _375
REMARK  150  A    between atoms: _375  and  _376
REMARK  151  A    between atoms: _375  and  _378
REMARK  152  A    between atoms: _381  and  _383
REMARK  153  A    between atoms: _383  and  _384
REMARK  154  A    between atoms: _383  and  _386
REMARK  155  A    between atoms: _386  and  _387
REMARK  156  A    between atoms: _387  and  _388
REMARK  157  A    between atoms: _391  and  _393
REMARK  158  A    between atoms: _393  and  _394
REMARK  159  A    between atoms: _393  and  _396
REMARK  160  A    between atoms: _396  and  _397
REMARK  161  A    between atoms: _404  and  _405
REMARK  162  A    between atoms: _410  and  _412
REMARK  163  A    between atoms: _412  and  _413
REMARK  164  A    between atoms: _412  and  _415
REMARK  165  A    between atoms: _415  and  _416
REMARK  166  A    between atoms: _422  and  _424
REMARK  167  A    between atoms: _424  and  _425
REMARK  168  A    between atoms: _424  and  _427
REMARK  169  A    between atoms: _427  and  _428
REMARK  170  A    between atoms: _431  and  _433
REMARK  171  A    between atoms: _433  and  _434
REMARK  172  A    between atoms: _433  and  _436
REMARK  173  A    between atoms: _436  and  _437
REMARK  174  A    between atoms: _437  and  _438
REMARK  175  A    between atoms: _438  and  _439
REMARK  176  A    between atoms: _439  and  _440
REMARK  177  A    between atoms: _444  and  _446
REMARK  178  A    between atoms: _446  and  _447
REMARK  179  A    between atoms: _446  and  _449
REMARK  180  A    between atoms: _449  and  _450
REMARK  181  A    between atoms: _453  and  _455
REMARK  182  A    between atoms: _455  and  _456
REMARK  183  A    between atoms: _455  and  _458
REMARK  184  A    between atoms: _461  and  _463
REMARK  185  A    between atoms: _463  and  _464
REMARK  186  A    between atoms: _463  and  _466
REMARK  187  A    between atoms: _469  and  _471
REMARK  188  A    between atoms: _471  and  _472
REMARK  189  A    between atoms: _471  and  _474
REMARK  190  A    between atoms: _474  and  _475
REMARK  191  A    between atoms: _478  and  _480
REMARK  192  A    between atoms: _480  and  _481
REMARK  193  A    between atoms: _480  and  _483
REMARK  194  A    between atoms: _483  and  _484
REMARK  195  A    between atoms: _487  and  _489
REMARK  196  A    between atoms: _489  and  _490
REMARK  197  A    between atoms: _489  and  _492
REMARK  198  A    between atoms: _492  and  _493
REMARK  199  A    between atoms: _496  and  _498
REMARK  200  A    between atoms: _498  and  _499
REMARK  201  A    between atoms: _498  and  _501
REMARK  202  A    between atoms: _501  and  _502
REMARK  203  A    between atoms: _506  and  _507
REMARK  204  A    between atoms: _512  and  _514
REMARK  205  A    between atoms: _514  and  _515
REMARK  206  A    between atoms: _514  and  _517
REMARK  207  A    between atoms: _517  and  _518
REMARK  208  A    between atoms: _521  and  _523
REMARK  209  A    between atoms: _523  and  _524
REMARK  210  A    between atoms: _523  and  _526
REMARK  211  A    between atoms: _529  and  _531
REMARK  212  A    between atoms: _531  and  _532
REMARK  213  A    between atoms: _535  and  _537
REMARK  214  A    between atoms: _537  and  _538
REMARK  215  A    between atoms: _537  and  _540
REMARK  216  A    between atoms: _540  and  _541
REMARK  217  A    between atoms: _546  and  _547
REMARK  218  A    between atoms: _549  and  _551
REMARK  219  A    between atoms: _551  and  _552
REMARK  220  A    between atoms: _551  and  _554
REMARK  221  A    between atoms: _554  and  _555
REMARK  222  A    between atoms: _557  and  _559
REMARK  223  A    between atoms: _559  and  _560
REMARK  224  A    between atoms: _559  and  _562
REMARK  225  A    between atoms: _562  and  _563
REMARK  226  A    between atoms: _565  and  _567
REMARK  227  A    between atoms: _567  and  _568
REMARK  228  A    between atoms: _567  and  _570
REMARK  229  A    between atoms: _574  and  _575
REMARK  230  A    between atoms: _580  and  _582
REMARK  231  A    between atoms: _582  and  _583
REMARK  232  A    between atoms: _582  and  _585
REMARK  233  A    between atoms: _585  and  _586
REMARK  234  A    between atoms: _591  and  _592
REMARK  235  A    between atoms: _594  and  _596
REMARK  236  A    between atoms: _596  and  _597
REMARK  237  A    between atoms: _596  and  _599
REMARK  238  A    between atoms: _599  and  _600
REMARK  239  A    between atoms: _600  and  _601
REMARK  240  A    between atoms: _601  and  _602
REMARK  241  A    between atoms: _611  and  _613
REMARK  242  A    between atoms: _613  and  _614
REMARK  243  A    between atoms: _613  and  _616
REMARK  244  A    between atoms: _616  and  _617
REMARK  245  A    between atoms: _617  and  _618
REMARK  246  A    between atoms: _620  and  _622
REMARK  247  A    between atoms: _622  and  _623
REMARK  248  A    between atoms: _622  and  _625
REMARK  249  A    between atoms: _628  and  _630
REMARK  250  A    between atoms: _630  and  _631
REMARK  251  A    between atoms: _630  and  _633
REMARK  252  A    between atoms: _633  and  _634
REMARK                            x       y       z     vdW  Elec       q    Type
REMARK                         _______ _______ _______ _____ _____    ______ ____
ROOT
ATOM      1  O   HOH     1      31.087  76.925  -4.489  0.00  0.00    +0.000 OA
ENDROOT
TORSDOF 0
REMARK  Name = ../refined-set-2016/3fh7/3fh7_pocket.pdb
REMARK  252 active torsions:
REMARK  status: ('A' for Active; 'I' for Inactive)
REMARK    1  A    between atoms: _1  and  _3
REMARK    2  A    between atoms: _3  and  _4
REMARK    3  A    between atoms: _3  and  _6
REMARK    4  A    between atoms: _8  and  _10
REMARK    5  A    between atoms: _10  and  _11
REMARK    6  A    between atoms: _10  and  _13
REMARK    7  A    between atoms: _13  and  _14
REMARK    8  A    between atoms: _16  and  _18
REMARK    9  A    between atoms: _18  and  _19
REMARK   10  A    between atoms: _18  and  _21
REMARK   11  A    between atoms: _21  and  _22
REMARK   12  A    between atoms: _22  and  _23
REMARK   13  A    between atoms: _28  and  _30
REMARK   14  A    between atoms: _30  and  _31
REMARK   15  A    between atoms: _30  and  _33
REMARK   16  A    between atoms: _35  and  _37
REMARK   17  A    between atoms: _37  and  _38
REMARK   18  A    between atoms: _37  and  _40
REMARK   19  A    between atoms: _40  and  _41
REMARK   20  A    between atoms: _41  and  _42
REMARK   21  A    between atoms: _47  and  _49
REMARK   22  A    between atoms: _49  and  _50
REMARK   23  A    between atoms: _53  and  _55
REMARK   24  A    between atoms: _55  and  _56
REMARK   25  A    between atoms: _55  and  _58
REMARK   26  A    between atoms: _58  and  _59
REMARK   27  A    between atoms: _62  and  _64
REMARK   28  A    between atoms: _64  and  _65
REMARK   29  A    between atoms: _64  and  _67
REMARK   30  A    between atoms: _67  and  _68
REMARK   31  A    between atoms: _73  and  _75
REMARK   32  A    between atoms: _75  and  _76
REMARK   33  A    between atoms: _75  and  _78
REMARK   34  A    between atoms: _78  and  _79
REMARK   35  A    between atoms: _84  and  _85
REMARK   36  A    between atoms: _87  and  _89
REMARK   37  A    between atoms: _89  and  _90
REMARK   38  A    between atoms: _89  and  _92
REMARK   39  A    between atoms: _92  and  _93
REMARK   40  A    between atoms: _100  and  _101
REMARK   41  A    between atoms: _106  and  _108
REMARK   42  A    between atoms: _108  and  _109
REMARK   43  A    between atoms: _108  and  _111
REMARK   44  A    between atoms: _111  and  _112
REMARK   45  A    between atoms: _117  and  _118
REMARK   46  A    between atoms: _120  and  _122
REMARK   47  A    between atoms: _122  and  _123
REMARK   48  A    between atoms: _125  and  _127
REMARK   49  A    between atoms: _127  and  _128
REMARK   50  A    between atoms: _130  and  _132
REMARK   51  A    between atoms: _132  and  _133
REMARK   52  A    between atoms: _132  and  _135
REMARK   53  A    between atoms: _135  and  _136
REMARK   54  A    between atoms: _136  and  _137
REMARK   55  A    between atoms: _139  and  _141
REMARK   56  A    between atoms: _141  and  _142
REMARK   57  A    between atoms: _141  and  _144
REMARK   58  A    between atoms: _144  and  _145
REMARK   59  A    between atoms: _145  and  _146
REMARK   60  A    between atoms: _149  and  _151
REMARK   61  A    between atoms: _151  and  _152
REMARK   62  A    between atoms: _151  and  _154
REMARK   63  A    between atoms: _154  and  _155
REMARK   64  A    between atoms: _160  and  _162
REMARK   65  A    between atoms: _162  and  _163
REMARK   66  A    between atoms: _162  and  _165
REMARK   67  A    between atoms: _165  and  _166
REMARK   68  A    between atoms: _169  and  _171
REMARK   69  A    between atoms: _171  and  _172
REMARK   70  A    between atoms: _171  and  _174
REMARK   71  A    between atoms: _174  and  _175
REMARK   72  A    between atoms: _181  and  _183
REMARK   73  A    between atoms: _183  and  _184
REMARK   74  A    between atoms: _183  and  _186
REMARK   75  A    between atoms: _189  and  _191
REMARK   76  A    between atoms: _191  and  _192
REMARK   77  A    between atoms: _191  and  _194
REMARK   78  A    between atoms: _194  and  _195
REMARK   79  A    between atoms: _199  and  ZN_637
REMARK   80  A    between atoms: _200  and  _202
REMARK   81  A    between atoms: _202  and  _203
REMARK   82  A    between atoms: _202  and  _205
REMARK   83  A    between atoms: _205  and  _206
REMARK   84  A    between atoms: _206  and  _207
REMARK   85  A    between atoms: _210  and  _212
REMARK   86  A    between atoms: _212  and  _213
REMARK   87  A    between atoms: _212  and  _215
REMARK   88  A    between atoms: _215  and  _216
REMARK   89  A    between atoms: _219  and  _221
REMARK   90  A    between atoms: _221  and  _222
REMARK   91  A    between atoms: _221  and  _224
REMARK   92  A    between atoms: _224  and  _225
REMARK   93  A    between atoms: _229  and  ZN_637
REMARK   94  A    between atoms: _230  and  _232
REMARK   95  A    between atoms: _232  and  _233
REMARK   96  A    between atoms: _232  and  _235
REMARK   97  A    between atoms: _235  and  _236
REMARK   98  A    between atoms: _239  and  _241
REMARK   99  A    between atoms: _241  and  _242
REMARK  100  A    between atoms: _241  and  _244
REMARK  101  A    between atoms: _244  and  _245
REMARK  102  A    between atoms: _250  and  _252
REMARK  103  A    between atoms: _252  and  _253
REMARK  104  A    between atoms: _252  and  _255
REMARK  105  A    between atoms: _255  and  _256
REMARK  106  A    between atoms: _261  and  _263
REMARK  107  A    between atoms: _263  and  _264
REMARK  108  A    between atoms: _263  and  _266
REMARK  109  A    between atoms: _266  and  _267
REMARK  110  A    between atoms: _270  and  _272
REMARK  111  A    between atoms: _272  and  _273
REMARK  112  A    between atoms: _272  and  _275
REMARK  113  A    between atoms: _275  and  _276
REMARK  114  A    between atoms: _286  and  _288
REMARK  115  A    between atoms: _288  and  _289
REMARK  116  A    between atoms: _288  and  _291
REMARK  117  A    between atoms: _291  and  _292
REMARK  118  A    between atoms: _295  and  _297
REMARK  119  A    between atoms: _297  and  _298
REMARK  120  A    between atoms: _297  and  _300
REMARK  121  A    between atoms: _300  and  _301
REMARK  122  A    between atoms: _306  and  _308
REMARK  123  A    between atoms: _308  and  _309
REMARK  124  A    between atoms: _308  and  _311
REMARK  125  A    between atoms: _311  and  _312
REMARK  126  A    between atoms: _318  and  _320
REMARK  127  A    between atoms: _320  and  _321
REMARK  128  A    between atoms: _320  and  _323
REMARK  129  A    between atoms: _323  and  _324
REMARK  130  A    between atoms: _334  and  _336
REMARK  131  A    between atoms: _336  and  _337
REMARK  132  A    between atoms: _336  and  _339
REMARK  133  A    between atoms: _339  and  _340
REMARK  134  A    between atoms: _343  and  _345
REMARK  135  A    between atoms: _345  and  _346
REMARK  136  A    between atoms: _345  and  _348
REMARK  137  A    between atoms: _348  and  _349
REMARK  138  A    between atoms: _354  and  _356
REMARK  139  A    between atoms: _356  and  _357
REMARK  140  A    between atoms: _356  and  _359
REMARK  141  A    between atoms: _359  and  _360
REMARK  142  A    between atoms: _360  and  _361
REMARK  143  A    between atoms: _361  and  _362
REMARK  144  A    between atoms: _362  and  ZN_637
REMARK  145  A    between atoms: _364  and  _366
REMARK  146  A    between atoms: _366  and  _367
REMARK  147  A    between atoms: _366  and  _369
REMARK  148  A    between atoms: _369  and  _370
REMARK  149  A    between atoms: _373  and  _375
REMARK  150  A    between atoms: _375  and  _376
REMARK  151  A    between atoms: _375  and  _378
REMARK  152  A    between atoms: _381  and  _383
REMARK  153  A    between atoms: _383  and  _384
REMARK  154  A    between atoms: _383  and  _386
REMARK  155  A    between atoms: _386  and  _387
REMARK  156  A    between atoms: _387  and  _388
REMARK  157  A    between atoms: _391  and  _393
REMARK  158  A    between atoms: _393  and  _394
REMARK  159  A    between atoms: _393  and  _396
REMARK  160  A    between atoms: _396  and  _397
REMARK  161  A    between atoms: _404  and  _405
REMARK  162  A    between atoms: _410  and  _412
REMARK  163  A    between atoms: _412  and  _413
REMARK  164  A    between atoms: _412  and  _415
REMARK  165  A    between atoms: _415  and  _416
REMARK  166  A    between atoms: _422  and  _424
REMARK  167  A    between atoms: _424  and  _425
REMARK  168  A    between atoms: _424  and  _427
REMARK  169  A    between atoms: _427  and  _428
REMARK  170  A    between atoms: _431  and  _433
REMARK  171  A    between atoms: _433  and  _434
REMARK  172  A    between atoms: _433  and  _436
REMARK  173  A    between atoms: _436  and  _437
REMARK  174  A    between atoms: _437  and  _438
REMARK  175  A    between atoms: _438  and  _439
REMARK  176  A    between atoms: _439  and  _440
REMARK  177  A    between atoms: _444  and  _446
REMARK  178  A    between atoms: _446  and  _447
REMARK  179  A    between atoms: _446  and  _449
REMARK  180  A    between atoms: _449  and  _450
REMARK  181  A    between atoms: _453  and  _455
REMARK  182  A    between atoms: _455  and  _456
REMARK  183  A    between atoms: _455  and  _458
REMARK  184  A    between atoms: _461  and  _463
REMARK  185  A    between atoms: _463  and  _464
REMARK  186  A    between atoms: _463  and  _466
REMARK  187  A    between atoms: _469  and  _471
REMARK  188  A    between atoms: _471  and  _472
REMARK  189  A    between atoms: _471  and  _474
REMARK  190  A    between atoms: _474  and  _475
REMARK  191  A    between atoms: _478  and  _480
REMARK  192  A    between atoms: _480  and  _481
REMARK  193  A    between atoms: _480  and  _483
REMARK  194  A    between atoms: _483  and  _484
REMARK  195  A    between atoms: _487  and  _489
REMARK  196  A    between atoms: _489  and  _490
REMARK  197  A    between atoms: _489  and  _492
REMARK  198  A    between atoms: _492  and  _493
REMARK  199  A    between atoms: _496  and  _498
REMARK  200  A    between atoms: _498  and  _499
REMARK  201  A    between atoms: _498  and  _501
REMARK  202  A    between atoms: _501  and  _502
REMARK  203  A    between atoms: _506  and  _507
REMARK  204  A    between atoms: _512  and  _514
REMARK  205  A    between atoms: _514  and  _515
REMARK  206  A    between atoms: _514  and  _517
REMARK  207  A    between atoms: _517  and  _518
REMARK  208  A    between atoms: _521  and  _523
REMARK  209  A    between atoms: _523  and  _524
REMARK  210  A    between atoms: _523  and  _526
REMARK  211  A    between atoms: _529  and  _531
REMARK  212  A    between atoms: _531  and  _532
REMARK  213  A    between atoms: _535  and  _537
REMARK  214  A    between atoms: _537  and  _538
REMARK  215  A    between atoms: _537  and  _540
REMARK  216  A    between atoms: _540  and  _541
REMARK  217  A    between atoms: _546  and  _547
REMARK  218  A    between atoms: _549  and  _551
REMARK  219  A    between atoms: _551  and  _552
REMARK  220  A    between atoms: _551  and  _554
REMARK  221  A    between atoms: _554  and  _555
REMARK  222  A    between atoms: _557  and  _559
REMARK  223  A    between atoms: _559  and  _560
REMARK  224  A    between atoms: _559  and  _562
REMARK  225  A    between atoms: _562  and  _563
REMARK  226  A    between atoms: _565  and  _567
REMARK  227  A    between atoms: _567  and  _568
REMARK  228  A    between atoms: _567  and  _570
REMARK  229  A    between atoms: _574  and  _575
REMARK  230  A    between atoms: _580  and  _582
REMARK  231  A    between atoms: _582  and  _583
REMARK  232  A    between atoms: _582  and  _585
REMARK  233  A    between atoms: _585  and  _586
REMARK  234  A    between atoms: _591  and  _592
REMARK  235  A    between atoms: _594  and  _596
REMARK  236  A    between atoms: _596  and  _597
REMARK  237  A    between atoms: _596  and  _599
REMARK  238  A    between atoms: _599  and  _600
REMARK  239  A    between atoms: _600  and  _601
REMARK  240  A    between atoms: _601  and  _602
REMARK  241  A    between atoms: _611  and  _613
REMARK  242  A    between atoms: _613  and  _614
REMARK  243  A    between atoms: _613  and  _616
REMARK  244  A    between atoms: _616  and  _617
REMARK  245  A    between atoms: _617  and  _618
REMARK  246  A    between atoms: _620  and  _622
REMARK  247  A    between atoms: _622  and  _623
REMARK  248  A    between atoms: _622  and  _625
REMARK  249  A    between atoms: _628  and  _630
REMARK  250  A    between atoms: _630  and  _631
REMARK  251  A    between atoms: _630  and  _633
REMARK  252  A    between atoms: _633  and  _634
REMARK                            x       y       z     vdW  Elec       q    Type
REMARK                         _______ _______ _______ _____ _____    ______ ____
ROOT
ATOM      1  O   HOH     1      35.830  78.178  -4.051  0.00  0.00    +0.000 OA
ENDROOT
TORSDOF 0
REMARK  Name = ../refined-set-2016/3fh7/3fh7_pocket.pdb
REMARK  252 active torsions:
REMARK  status: ('A' for Active; 'I' for Inactive)
REMARK    1  A    between atoms: _1  and  _3
REMARK    2  A    between atoms: _3  and  _4
REMARK    3  A    between atoms: _3  and  _6
REMARK    4  A    between atoms: _8  and  _10
REMARK    5  A    between atoms: _10  and  _11
REMARK    6  A    between atoms: _10  and  _13
REMARK    7  A    between atoms: _13  and  _14
REMARK    8  A    between atoms: _16  and  _18
REMARK    9  A    between atoms: _18  and  _19
REMARK   10  A    between atoms: _18  and  _21
REMARK   11  A    between atoms: _21  and  _22
REMARK   12  A    between atoms: _22  and  _23
REMARK   13  A    between atoms: _28  and  _30
REMARK   14  A    between atoms: _30  and  _31
REMARK   15  A    between atoms: _30  and  _33
REMARK   16  A    between atoms: _35  and  _37
REMARK   17  A    between atoms: _37  and  _38
REMARK   18  A    between atoms: _37  and  _40
REMARK   19  A    between atoms: _40  and  _41
REMARK   20  A    between atoms: _41  and  _42
REMARK   21  A    between atoms: _47  and  _49
REMARK   22  A    between atoms: _49  and  _50
REMARK   23  A    between atoms: _53  and  _55
REMARK   24  A    between atoms: _55  and  _56
REMARK   25  A    between atoms: _55  and  _58
REMARK   26  A    between atoms: _58  and  _59
REMARK   27  A    between atoms: _62  and  _64
REMARK   28  A    between atoms: _64  and  _65
REMARK   29  A    between atoms: _64  and  _67
REMARK   30  A    between atoms: _67  and  _68
REMARK   31  A    between atoms: _73  and  _75
REMARK   32  A    between atoms: _75  and  _76
REMARK   33  A    between atoms: _75  and  _78
REMARK   34  A    between atoms: _78  and  _79
REMARK   35  A    between atoms: _84  and  _85
REMARK   36  A    between atoms: _87  and  _89
REMARK   37  A    between atoms: _89  and  _90
REMARK   38  A    between atoms: _89  and  _92
REMARK   39  A    between atoms: _92  and  _93
REMARK   40  A    between atoms: _100  and  _101
REMARK   41  A    between atoms: _106  and  _108
REMARK   42  A    between atoms: _108  and  _109
REMARK   43  A    between atoms: _108  and  _111
REMARK   44  A    between atoms: _111  and  _112
REMARK   45  A    between atoms: _117  and  _118
REMARK   46  A    between atoms: _120  and  _122
REMARK   47  A    between atoms: _122  and  _123
REMARK   48  A    between atoms: _125  and  _127
REMARK   49  A    between atoms: _127  and  _128
REMARK   50  A    between atoms: _130  and  _132
REMARK   51  A    between atoms: _132  and  _133
REMARK   52  A    between atoms: _132  and  _135
REMARK   53  A    between atoms: _135  and  _136
REMARK   54  A    between atoms: _136  and  _137
REMARK   55  A    between atoms: _139  and  _141
REMARK   56  A    between atoms: _141  and  _142
REMARK   57  A    between atoms: _141  and  _144
REMARK   58  A    between atoms: _144  and  _145
REMARK   59  A    between atoms: _145  and  _146
REMARK   60  A    between atoms: _149  and  _151
REMARK   61  A    between atoms: _151  and  _152
REMARK   62  A    between atoms: _151  and  _154
REMARK   63  A    between atoms: _154  and  _155
REMARK   64  A    between atoms: _160  and  _162
REMARK   65  A    between atoms: _162  and  _163
REMARK   66  A    between atoms: _162  and  _165
REMARK   67  A    between atoms: _165  and  _166
REMARK   68  A    between atoms: _169  and  _171
REMARK   69  A    between atoms: _171  and  _172
REMARK   70  A    between atoms: _171  and  _174
REMARK   71  A    between atoms: _174  and  _175
REMARK   72  A    between atoms: _181  and  _183
REMARK   73  A    between atoms: _183  and  _184
REMARK   74  A    between atoms: _183  and  _186
REMARK   75  A    between atoms: _189  and  _191
REMARK   76  A    between atoms: _191  and  _192
REMARK   77  A    between atoms: _191  and  _194
REMARK   78  A    between atoms: _194  and  _195
REMARK   79  A    between atoms: _199  and  ZN_637
REMARK   80  A    between atoms: _200  and  _202
REMARK   81  A    between atoms: _202  and  _203
REMARK   82  A    between atoms: _202  and  _205
REMARK   83  A    between atoms: _205  and  _206
REMARK   84  A    between atoms: _206  and  _207
REMARK   85  A    between atoms: _210  and  _212
REMARK   86  A    between atoms: _212  and  _213
REMARK   87  A    between atoms: _212  and  _215
REMARK   88  A    between atoms: _215  and  _216
REMARK   89  A    between atoms: _219  and  _221
REMARK   90  A    between atoms: _221  and  _222
REMARK   91  A    between atoms: _221  and  _224
REMARK   92  A    between atoms: _224  and  _225
REMARK   93  A    between atoms: _229  and  ZN_637
REMARK   94  A    between atoms: _230  and  _232
REMARK   95  A    between atoms: _232  and  _233
REMARK   96  A    between atoms: _232  and  _235
REMARK   97  A    between atoms: _235  and  _236
REMARK   98  A    between atoms: _239  and  _241
REMARK   99  A    between atoms: _241  and  _242
REMARK  100  A    between atoms: _241  and  _244
REMARK  101  A    between atoms: _244  and  _245
REMARK  102  A    between atoms: _250  and  _252
REMARK  103  A    between atoms: _252  and  _253
REMARK  104  A    between atoms: _252  and  _255
REMARK  105  A    between atoms: _255  and  _256
REMARK  106  A    between atoms: _261  and  _263
REMARK  107  A    between atoms: _263  and  _264
REMARK  108  A    between atoms: _263  and  _266
REMARK  109  A    between atoms: _266  and  _267
REMARK  110  A    between atoms: _270  and  _272
REMARK  111  A    between atoms: _272  and  _273
REMARK  112  A    between atoms: _272  and  _275
REMARK  113  A    between atoms: _275  and  _276
REMARK  114  A    between atoms: _286  and  _288
REMARK  115  A    between atoms: _288  and  _289
REMARK  116  A    between atoms: _288  and  _291
REMARK  117  A    between atoms: _291  and  _292
REMARK  118  A    between atoms: _295  and  _297
REMARK  119  A    between atoms: _297  and  _298
REMARK  120  A    between atoms: _297  and  _300
REMARK  121  A    between atoms: _300  and  _301
REMARK  122  A    between atoms: _306  and  _308
REMARK  123  A    between atoms: _308  and  _309
REMARK  124  A    between atoms: _308  and  _311
REMARK  125  A    between atoms: _311  and  _312
REMARK  126  A    between atoms: _318  and  _320
REMARK  127  A    between atoms: _320  and  _321
REMARK  128  A    between atoms: _320  and  _323
REMARK  129  A    between atoms: _323  and  _324
REMARK  130  A    between atoms: _334  and  _336
REMARK  131  A    between atoms: _336  and  _337
REMARK  132  A    between atoms: _336  and  _339
REMARK  133  A    between atoms: _339  and  _340
REMARK  134  A    between atoms: _343  and  _345
REMARK  135  A    between atoms: _345  and  _346
REMARK  136  A    between atoms: _345  and  _348
REMARK  137  A    between atoms: _348  and  _349
REMARK  138  A    between atoms: _354  and  _356
REMARK  139  A    between atoms: _356  and  _357
REMARK  140  A    between atoms: _356  and  _359
REMARK  141  A    between atoms: _359  and  _360
REMARK  142  A    between atoms: _360  and  _361
REMARK  143  A    between atoms: _361  and  _362
REMARK  144  A    between atoms: _362  and  ZN_637
REMARK  145  A    between atoms: _364  and  _366
REMARK  146  A    between atoms: _366  and  _367
REMARK  147  A    between atoms: _366  and  _369
REMARK  148  A    between atoms: _369  and  _370
REMARK  149  A    between atoms: _373  and  _375
REMARK  150  A    between atoms: _375  and  _376
REMARK  151  A    between atoms: _375  and  _378
REMARK  152  A    between atoms: _381  and  _383
REMARK  153  A    between atoms: _383  and  _384
REMARK  154  A    between atoms: _383  and  _386
REMARK  155  A    between atoms: _386  and  _387
REMARK  156  A    between atoms: _387  and  _388
REMARK  157  A    between atoms: _391  and  _393
REMARK  158  A    between atoms: _393  and  _394
REMARK  159  A    between atoms: _393  and  _396
REMARK  160  A    between atoms: _396  and  _397
REMARK  161  A    between atoms: _404  and  _405
REMARK  162  A    between atoms: _410  and  _412
REMARK  163  A    between atoms: _412  and  _413
REMARK  164  A    between atoms: _412  and  _415
REMARK  165  A    between atoms: _415  and  _416
REMARK  166  A    between atoms: _422  and  _424
REMARK  167  A    between atoms: _424  and  _425
REMARK  168  A    between atoms: _424  and  _427
REMARK  169  A    between atoms: _427  and  _428
REMARK  170  A    between atoms: _431  and  _433
REMARK  171  A    between atoms: _433  and  _434
REMARK  172  A    between atoms: _433  and  _436
REMARK  173  A    between atoms: _436  and  _437
REMARK  174  A    between atoms: _437  and  _438
REMARK  175  A    between atoms: _438  and  _439
REMARK  176  A    between atoms: _439  and  _440
REMARK  177  A    between atoms: _444  and  _446
REMARK  178  A    between atoms: _446  and  _447
REMARK  179  A    between atoms: _446  and  _449
REMARK  180  A    between atoms: _449  and  _450
REMARK  181  A    between atoms: _453  and  _455
REMARK  182  A    between atoms: _455  and  _456
REMARK  183  A    between atoms: _455  and  _458
REMARK  184  A    between atoms: _461  and  _463
REMARK  185  A    between atoms: _463  and  _464
REMARK  186  A    between atoms: _463  and  _466
REMARK  187  A    between atoms: _469  and  _471
REMARK  188  A    between atoms: _471  and  _472
REMARK  189  A    between atoms: _471  and  _474
REMARK  190  A    between atoms: _474  and  _475
REMARK  191  A    between atoms: _478  and  _480
REMARK  192  A    between atoms: _480  and  _481
REMARK  193  A    between atoms: _480  and  _483
REMARK  194  A    between atoms: _483  and  _484
REMARK  195  A    between atoms: _487  and  _489
REMARK  196  A    between atoms: _489  and  _490
REMARK  197  A    between atoms: _489  and  _492
REMARK  198  A    between atoms: _492  and  _493
REMARK  199  A    between atoms: _496  and  _498
REMARK  200  A    between atoms: _498  and  _499
REMARK  201  A    between atoms: _498  and  _501
REMARK  202  A    between atoms: _501  and  _502
REMARK  203  A    between atoms: _506  and  _507
REMARK  204  A    between atoms: _512  and  _514
REMARK  205  A    between atoms: _514  and  _515
REMARK  206  A    between atoms: _514  and  _517
REMARK  207  A    between atoms: _517  and  _518
REMARK  208  A    between atoms: _521  and  _523
REMARK  209  A    between atoms: _523  and  _524
REMARK  210  A    between atoms: _523  and  _526
REMARK  211  A    between atoms: _529  and  _531
REMARK  212  A    between atoms: _531  and  _532
REMARK  213  A    between atoms: _535  and  _537
REMARK  214  A    between atoms: _537  and  _538
REMARK  215  A    between atoms: _537  and  _540
REMARK  216  A    between atoms: _540  and  _541
REMARK  217  A    between atoms: _546  and  _547
REMARK  218  A    between atoms: _549  and  _551
REMARK  219  A    between atoms: _551  and  _552
REMARK  220  A    between atoms: _551  and  _554
REMARK  221  A    between atoms: _554  and  _555
REMARK  222  A    between atoms: _557  and  _559
REMARK  223  A    between atoms: _559  and  _560
REMARK  224  A    between atoms: _559  and  _562
REMARK  225  A    between atoms: _562  and  _563
REMARK  226  A    between atoms: _565  and  _567
REMARK  227  A    between atoms: _567  and  _568
REMARK  228  A    between atoms: _567  and  _570
REMARK  229  A    between atoms: _574  and  _575
REMARK  230  A    between atoms: _580  and  _582
REMARK  231  A    between atoms: _582  and  _583
REMARK  232  A    between atoms: _582  and  _585
REMARK  233  A    between atoms: _585  and  _586
REMARK  234  A    between atoms: _591  and  _592
REMARK  235  A    between atoms: _594  and  _596
REMARK  236  A    between atoms: _596  and  _597
REMARK  237  A    between atoms: _596  and  _599
REMARK  238  A    between atoms: _599  and  _600
REMARK  239  A    between atoms: _600  and  _601
REMARK  240  A    between atoms: _601  and  _602
REMARK  241  A    between atoms: _611  and  _613
REMARK  242  A    between atoms: _613  and  _614
REMARK  243  A    between atoms: _613  and  _616
REMARK  244  A    between atoms: _616  and  _617
REMARK  245  A    between atoms: _617  and  _618
REMARK  246  A    between atoms: _620  and  _622
REMARK  247  A    between atoms: _622  and  _623
REMARK  248  A    between atoms: _622  and  _625
REMARK  249  A    between atoms: _628  and  _630
REMARK  250  A    between atoms: _630  and  _631
REMARK  251  A    between atoms: _630  and  _633
REMARK  252  A    between atoms: _633  and  _634
REMARK                            x       y       z     vdW  Elec       q    Type
REMARK                         _______ _______ _______ _____ _____    ______ ____
ROOT
ATOM      1  O   HOH     1      30.152  77.610  -2.174  0.00  0.00    +0.000 OA
ENDROOT
TORSDOF 0
REMARK  Name = ../refined-set-2016/3fh7/3fh7_pocket.pdb
REMARK  252 active torsions:
REMARK  status: ('A' for Active; 'I' for Inactive)
REMARK    1  A    between atoms: _1  and  _3
REMARK    2  A    between atoms: _3  and  _4
REMARK    3  A    between atoms: _3  and  _6
REMARK    4  A    between atoms: _8  and  _10
REMARK    5  A    between atoms: _10  and  _11
REMARK    6  A    between atoms: _10  and  _13
REMARK    7  A    between atoms: _13  and  _14
REMARK    8  A    between atoms: _16  and  _18
REMARK    9  A    between atoms: _18  and  _19
REMARK   10  A    between atoms: _18  and  _21
REMARK   11  A    between atoms: _21  and  _22
REMARK   12  A    between atoms: _22  and  _23
REMARK   13  A    between atoms: _28  and  _30
REMARK   14  A    between atoms: _30  and  _31
REMARK   15  A    between atoms: _30  and  _33
REMARK   16  A    between atoms: _35  and  _37
REMARK   17  A    between atoms: _37  and  _38
REMARK   18  A    between atoms: _37  and  _40
REMARK   19  A    between atoms: _40  and  _41
REMARK   20  A    between atoms: _41  and  _42
REMARK   21  A    between atoms: _47  and  _49
REMARK   22  A    between atoms: _49  and  _50
REMARK   23  A    between atoms: _53  and  _55
REMARK   24  A    between atoms: _55  and  _56
REMARK   25  A    between atoms: _55  and  _58
REMARK   26  A    between atoms: _58  and  _59
REMARK   27  A    between atoms: _62  and  _64
REMARK   28  A    between atoms: _64  and  _65
REMARK   29  A    between atoms: _64  and  _67
REMARK   30  A    between atoms: _67  and  _68
REMARK   31  A    between atoms: _73  and  _75
REMARK   32  A    between atoms: _75  and  _76
REMARK   33  A    between atoms: _75  and  _78
REMARK   34  A    between atoms: _78  and  _79
REMARK   35  A    between atoms: _84  and  _85
REMARK   36  A    between atoms: _87  and  _89
REMARK   37  A    between atoms: _89  and  _90
REMARK   38  A    between atoms: _89  and  _92
REMARK   39  A    between atoms: _92  and  _93
REMARK   40  A    between atoms: _100  and  _101
REMARK   41  A    between atoms: _106  and  _108
REMARK   42  A    between atoms: _108  and  _109
REMARK   43  A    between atoms: _108  and  _111
REMARK   44  A    between atoms: _111  and  _112
REMARK   45  A    between atoms: _117  and  _118
REMARK   46  A    between atoms: _120  and  _122
REMARK   47  A    between atoms: _122  and  _123
REMARK   48  A    between atoms: _125  and  _127
REMARK   49  A    between atoms: _127  and  _128
REMARK   50  A    between atoms: _130  and  _132
REMARK   51  A    between atoms: _132  and  _133
REMARK   52  A    between atoms: _132  and  _135
REMARK   53  A    between atoms: _135  and  _136
REMARK   54  A    between atoms: _136  and  _137
REMARK   55  A    between atoms: _139  and  _141
REMARK   56  A    between atoms: _141  and  _142
REMARK   57  A    between atoms: _141  and  _144
REMARK   58  A    between atoms: _144  and  _145
REMARK   59  A    between atoms: _145  and  _146
REMARK   60  A    between atoms: _149  and  _151
REMARK   61  A    between atoms: _151  and  _152
REMARK   62  A    between atoms: _151  and  _154
REMARK   63  A    between atoms: _154  and  _155
REMARK   64  A    between atoms: _160  and  _162
REMARK   65  A    between atoms: _162  and  _163
REMARK   66  A    between atoms: _162  and  _165
REMARK   67  A    between atoms: _165  and  _166
REMARK   68  A    between atoms: _169  and  _171
REMARK   69  A    between atoms: _171  and  _172
REMARK   70  A    between atoms: _171  and  _174
REMARK   71  A    between atoms: _174  and  _175
REMARK   72  A    between atoms: _181  and  _183
REMARK   73  A    between atoms: _183  and  _184
REMARK   74  A    between atoms: _183  and  _186
REMARK   75  A    between atoms: _189  and  _191
REMARK   76  A    between atoms: _191  and  _192
REMARK   77  A    between atoms: _191  and  _194
REMARK   78  A    between atoms: _194  and  _195
REMARK   79  A    between atoms: _199  and  ZN_637
REMARK   80  A    between atoms: _200  and  _202
REMARK   81  A    between atoms: _202  and  _203
REMARK   82  A    between atoms: _202  and  _205
REMARK   83  A    between atoms: _205  and  _206
REMARK   84  A    between atoms: _206  and  _207
REMARK   85  A    between atoms: _210  and  _212
REMARK   86  A    between atoms: _212  and  _213
REMARK   87  A    between atoms: _212  and  _215
REMARK   88  A    between atoms: _215  and  _216
REMARK   89  A    between atoms: _219  and  _221
REMARK   90  A    between atoms: _221  and  _222
REMARK   91  A    between atoms: _221  and  _224
REMARK   92  A    between atoms: _224  and  _225
REMARK   93  A    between atoms: _229  and  ZN_637
REMARK   94  A    between atoms: _230  and  _232
REMARK   95  A    between atoms: _232  and  _233
REMARK   96  A    between atoms: _232  and  _235
REMARK   97  A    between atoms: _235  and  _236
REMARK   98  A    between atoms: _239  and  _241
REMARK   99  A    between atoms: _241  and  _242
REMARK  100  A    between atoms: _241  and  _244
REMARK  101  A    between atoms: _244  and  _245
REMARK  102  A    between atoms: _250  and  _252
REMARK  103  A    between atoms: _252  and  _253
REMARK  104  A    between atoms: _252  and  _255
REMARK  105  A    between atoms: _255  and  _256
REMARK  106  A    between atoms: _261  and  _263
REMARK  107  A    between atoms: _263  and  _264
REMARK  108  A    between atoms: _263  and  _266
REMARK  109  A    between atoms: _266  and  _267
REMARK  110  A    between atoms: _270  and  _272
REMARK  111  A    between atoms: _272  and  _273
REMARK  112  A    between atoms: _272  and  _275
REMARK  113  A    between atoms: _275  and  _276
REMARK  114  A    between atoms: _286  and  _288
REMARK  115  A    between atoms: _288  and  _289
REMARK  116  A    between atoms: _288  and  _291
REMARK  117  A    between atoms: _291  and  _292
REMARK  118  A    between atoms: _295  and  _297
REMARK  119  A    between atoms: _297  and  _298
REMARK  120  A    between atoms: _297  and  _300
REMARK  121  A    between atoms: _300  and  _301
REMARK  122  A    between atoms: _306  and  _308
REMARK  123  A    between atoms: _308  and  _309
REMARK  124  A    between atoms: _308  and  _311
REMARK  125  A    between atoms: _311  and  _312
REMARK  126  A    between atoms: _318  and  _320
REMARK  127  A    between atoms: _320  and  _321
REMARK  128  A    between atoms: _320  and  _323
REMARK  129  A    between atoms: _323  and  _324
REMARK  130  A    between atoms: _334  and  _336
REMARK  131  A    between atoms: _336  and  _337
REMARK  132  A    between atoms: _336  and  _339
REMARK  133  A    between atoms: _339  and  _340
REMARK  134  A    between atoms: _343  and  _345
REMARK  135  A    between atoms: _345  and  _346
REMARK  136  A    between atoms: _345  and  _348
REMARK  137  A    between atoms: _348  and  _349
REMARK  138  A    between atoms: _354  and  _356
REMARK  139  A    between atoms: _356  and  _357
REMARK  140  A    between atoms: _356  and  _359
REMARK  141  A    between atoms: _359  and  _360
REMARK  142  A    between atoms: _360  and  _361
REMARK  143  A    between atoms: _361  and  _362
REMARK  144  A    between atoms: _362  and  ZN_637
REMARK  145  A    between atoms: _364  and  _366
REMARK  146  A    between atoms: _366  and  _367
REMARK  147  A    between atoms: _366  and  _369
REMARK  148  A    between atoms: _369  and  _370
REMARK  149  A    between atoms: _373  and  _375
REMARK  150  A    between atoms: _375  and  _376
REMARK  151  A    between atoms: _375  and  _378
REMARK  152  A    between atoms: _381  and  _383
REMARK  153  A    between atoms: _383  and  _384
REMARK  154  A    between atoms: _383  and  _386
REMARK  155  A    between atoms: _386  and  _387
REMARK  156  A    between atoms: _387  and  _388
REMARK  157  A    between atoms: _391  and  _393
REMARK  158  A    between atoms: _393  and  _394
REMARK  159  A    between atoms: _393  and  _396
REMARK  160  A    between atoms: _396  and  _397
REMARK  161  A    between atoms: _404  and  _405
REMARK  162  A    between atoms: _410  and  _412
REMARK  163  A    between atoms: _412  and  _413
REMARK  164  A    between atoms: _412  and  _415
REMARK  165  A    between atoms: _415  and  _416
REMARK  166  A    between atoms: _422  and  _424
REMARK  167  A    between atoms: _424  and  _425
REMARK  168  A    between atoms: _424  and  _427
REMARK  169  A    between atoms: _427  and  _428
REMARK  170  A    between atoms: _431  and  _433
REMARK  171  A    between atoms: _433  and  _434
REMARK  172  A    between atoms: _433  and  _436
REMARK  173  A    between atoms: _436  and  _437
REMARK  174  A    between atoms: _437  and  _438
REMARK  175  A    between atoms: _438  and  _439
REMARK  176  A    between atoms: _439  and  _440
REMARK  177  A    between atoms: _444  and  _446
REMARK  178  A    between atoms: _446  and  _447
REMARK  179  A    between atoms: _446  and  _449
REMARK  180  A    between atoms: _449  and  _450
REMARK  181  A    between atoms: _453  and  _455
REMARK  182  A    between atoms: _455  and  _456
REMARK  183  A    between atoms: _455  and  _458
REMARK  184  A    between atoms: _461  and  _463
REMARK  185  A    between atoms: _463  and  _464
REMARK  186  A    between atoms: _463  and  _466
REMARK  187  A    between atoms: _469  and  _471
REMARK  188  A    between atoms: _471  and  _472
REMARK  189  A    between atoms: _471  and  _474
REMARK  190  A    between atoms: _474  and  _475
REMARK  191  A    between atoms: _478  and  _480
REMARK  192  A    between atoms: _480  and  _481
REMARK  193  A    between atoms: _480  and  _483
REMARK  194  A    between atoms: _483  and  _484
REMARK  195  A    between atoms: _487  and  _489
REMARK  196  A    between atoms: _489  and  _490
REMARK  197  A    between atoms: _489  and  _492
REMARK  198  A    between atoms: _492  and  _493
REMARK  199  A    between atoms: _496  and  _498
REMARK  200  A    between atoms: _498  and  _499
REMARK  201  A    between atoms: _498  and  _501
REMARK  202  A    between atoms: _501  and  _502
REMARK  203  A    between atoms: _506  and  _507
REMARK  204  A    between atoms: _512  and  _514
REMARK  205  A    between atoms: _514  and  _515
REMARK  206  A    between atoms: _514  and  _517
REMARK  207  A    between atoms: _517  and  _518
REMARK  208  A    between atoms: _521  and  _523
REMARK  209  A    between atoms: _523  and  _524
REMARK  210  A    between atoms: _523  and  _526
REMARK  211  A    between atoms: _529  and  _531
REMARK  212  A    between atoms: _531  and  _532
REMARK  213  A    between atoms: _535  and  _537
REMARK  214  A    between atoms: _537  and  _538
REMARK  215  A    between atoms: _537  and  _540
REMARK  216  A    between atoms: _540  and  _541
REMARK  217  A    between atoms: _546  and  _547
REMARK  218  A    between atoms: _549  and  _551
REMARK  219  A    between atoms: _551  and  _552
REMARK  220  A    between atoms: _551  and  _554
REMARK  221  A    between atoms: _554  and  _555
REMARK  222  A    between atoms: _557  and  _559
REMARK  223  A    between atoms: _559  and  _560
REMARK  224  A    between atoms: _559  and  _562
REMARK  225  A    between atoms: _562  and  _563
REMARK  226  A    between atoms: _565  and  _567
REMARK  227  A    between atoms: _567  and  _568
REMARK  228  A    between atoms: _567  and  _570
REMARK  229  A    between atoms: _574  and  _575
REMARK  230  A    between atoms: _580  and  _582
REMARK  231  A    between atoms: _582  and  _583
REMARK  232  A    between atoms: _582  and  _585
REMARK  233  A    between atoms: _585  and  _586
REMARK  234  A    between atoms: _591  and  _592
REMARK  235  A    between atoms: _594  and  _596
REMARK  236  A    between atoms: _596  and  _597
REMARK  237  A    between atoms: _596  and  _599
REMARK  238  A    between atoms: _599  and  _600
REMARK  239  A    between atoms: _600  and  _601
REMARK  240  A    between atoms: _601  and  _602
REMARK  241  A    between atoms: _611  and  _613
REMARK  242  A    between atoms: _613  and  _614
REMARK  243  A    between atoms: _613  and  _616
REMARK  244  A    between atoms: _616  and  _617
REMARK  245  A    between atoms: _617  and  _618
REMARK  246  A    between atoms: _620  and  _622
REMARK  247  A    between atoms: _622  and  _623
REMARK  248  A    between atoms: _622  and  _625
REMARK  249  A    between atoms: _628  and  _630
REMARK  250  A    between atoms: _630  and  _631
REMARK  251  A    between atoms: _630  and  _633
REMARK  252  A    between atoms: _633  and  _634
REMARK                            x       y       z     vdW  Elec       q    Type
REMARK                         _______ _______ _______ _____ _____    ______ ____
ROOT
ATOM      1  O   HOH     1      32.609  76.671  -7.152  0.00  0.00    +0.000 OA
ENDROOT
TORSDOF 0
REMARK  Name = ../refined-set-2016/3fh7/3fh7_pocket.pdb
REMARK  252 active torsions:
REMARK  status: ('A' for Active; 'I' for Inactive)
REMARK    1  A    between atoms: _1  and  _3
REMARK    2  A    between atoms: _3  and  _4
REMARK    3  A    between atoms: _3  and  _6
REMARK    4  A    between atoms: _8  and  _10
REMARK    5  A    between atoms: _10  and  _11
REMARK    6  A    between atoms: _10  and  _13
REMARK    7  A    between atoms: _13  and  _14
REMARK    8  A    between atoms: _16  and  _18
REMARK    9  A    between atoms: _18  and  _19
REMARK   10  A    between atoms: _18  and  _21
REMARK   11  A    between atoms: _21  and  _22
REMARK   12  A    between atoms: _22  and  _23
REMARK   13  A    between atoms: _28  and  _30
REMARK   14  A    between atoms: _30  and  _31
REMARK   15  A    between atoms: _30  and  _33
REMARK   16  A    between atoms: _35  and  _37
REMARK   17  A    between atoms: _37  and  _38
REMARK   18  A    between atoms: _37  and  _40
REMARK   19  A    between atoms: _40  and  _41
REMARK   20  A    between atoms: _41  and  _42
REMARK   21  A    between atoms: _47  and  _49
REMARK   22  A    between atoms: _49  and  _50
REMARK   23  A    between atoms: _53  and  _55
REMARK   24  A    between atoms: _55  and  _56
REMARK   25  A    between atoms: _55  and  _58
REMARK   26  A    between atoms: _58  and  _59
REMARK   27  A    between atoms: _62  and  _64
REMARK   28  A    between atoms: _64  and  _65
REMARK   29  A    between atoms: _64  and  _67
REMARK   30  A    between atoms: _67  and  _68
REMARK   31  A    between atoms: _73  and  _75
REMARK   32  A    between atoms: _75  and  _76
REMARK   33  A    between atoms: _75  and  _78
REMARK   34  A    between atoms: _78  and  _79
REMARK   35  A    between atoms: _84  and  _85
REMARK   36  A    between atoms: _87  and  _89
REMARK   37  A    between atoms: _89  and  _90
REMARK   38  A    between atoms: _89  and  _92
REMARK   39  A    between atoms: _92  and  _93
REMARK   40  A    between atoms: _100  and  _101
REMARK   41  A    between atoms: _106  and  _108
REMARK   42  A    between atoms: _108  and  _109
REMARK   43  A    between atoms: _108  and  _111
REMARK   44  A    between atoms: _111  and  _112
REMARK   45  A    between atoms: _117  and  _118
REMARK   46  A    between atoms: _120  and  _122
REMARK   47  A    between atoms: _122  and  _123
REMARK   48  A    between atoms: _125  and  _127
REMARK   49  A    between atoms: _127  and  _128
REMARK   50  A    between atoms: _130  and  _132
REMARK   51  A    between atoms: _132  and  _133
REMARK   52  A    between atoms: _132  and  _135
REMARK   53  A    between atoms: _135  and  _136
REMARK   54  A    between atoms: _136  and  _137
REMARK   55  A    between atoms: _139  and  _141
REMARK   56  A    between atoms: _141  and  _142
REMARK   57  A    between atoms: _141  and  _144
REMARK   58  A    between atoms: _144  and  _145
REMARK   59  A    between atoms: _145  and  _146
REMARK   60  A    between atoms: _149  and  _151
REMARK   61  A    between atoms: _151  and  _152
REMARK   62  A    between atoms: _151  and  _154
REMARK   63  A    between atoms: _154  and  _155
REMARK   64  A    between atoms: _160  and  _162
REMARK   65  A    between atoms: _162  and  _163
REMARK   66  A    between atoms: _162  and  _165
REMARK   67  A    between atoms: _165  and  _166
REMARK   68  A    between atoms: _169  and  _171
REMARK   69  A    between atoms: _171  and  _172
REMARK   70  A    between atoms: _171  and  _174
REMARK   71  A    between atoms: _174  and  _175
REMARK   72  A    between atoms: _181  and  _183
REMARK   73  A    between atoms: _183  and  _184
REMARK   74  A    between atoms: _183  and  _186
REMARK   75  A    between atoms: _189  and  _191
REMARK   76  A    between atoms: _191  and  _192
REMARK   77  A    between atoms: _191  and  _194
REMARK   78  A    between atoms: _194  and  _195
REMARK   79  A    between atoms: _199  and  ZN_637
REMARK   80  A    between atoms: _200  and  _202
REMARK   81  A    between atoms: _202  and  _203
REMARK   82  A    between atoms: _202  and  _205
REMARK   83  A    between atoms: _205  and  _206
REMARK   84  A    between atoms: _206  and  _207
REMARK   85  A    between atoms: _210  and  _212
REMARK   86  A    between atoms: _212  and  _213
REMARK   87  A    between atoms: _212  and  _215
REMARK   88  A    between atoms: _215  and  _216
REMARK   89  A    between atoms: _219  and  _221
REMARK   90  A    between atoms: _221  and  _222
REMARK   91  A    between atoms: _221  and  _224
REMARK   92  A    between atoms: _224  and  _225
REMARK   93  A    between atoms: _229  and  ZN_637
REMARK   94  A    between atoms: _230  and  _232
REMARK   95  A    between atoms: _232  and  _233
REMARK   96  A    between atoms: _232  and  _235
REMARK   97  A    between atoms: _235  and  _236
REMARK   98  A    between atoms: _239  and  _241
REMARK   99  A    between atoms: _241  and  _242
REMARK  100  A    between atoms: _241  and  _244
REMARK  101  A    between atoms: _244  and  _245
REMARK  102  A    between atoms: _250  and  _252
REMARK  103  A    between atoms: _252  and  _253
REMARK  104  A    between atoms: _252  and  _255
REMARK  105  A    between atoms: _255  and  _256
REMARK  106  A    between atoms: _261  and  _263
REMARK  107  A    between atoms: _263  and  _264
REMARK  108  A    between atoms: _263  and  _266
REMARK  109  A    between atoms: _266  and  _267
REMARK  110  A    between atoms: _270  and  _272
REMARK  111  A    between atoms: _272  and  _273
REMARK  112  A    between atoms: _272  and  _275
REMARK  113  A    between atoms: _275  and  _276
REMARK  114  A    between atoms: _286  and  _288
REMARK  115  A    between atoms: _288  and  _289
REMARK  116  A    between atoms: _288  and  _291
REMARK  117  A    between atoms: _291  and  _292
REMARK  118  A    between atoms: _295  and  _297
REMARK  119  A    between atoms: _297  and  _298
REMARK  120  A    between atoms: _297  and  _300
REMARK  121  A    between atoms: _300  and  _301
REMARK  122  A    between atoms: _306  and  _308
REMARK  123  A    between atoms: _308  and  _309
REMARK  124  A    between atoms: _308  and  _311
REMARK  125  A    between atoms: _311  and  _312
REMARK  126  A    between atoms: _318  and  _320
REMARK  127  A    between atoms: _320  and  _321
REMARK  128  A    between atoms: _320  and  _323
REMARK  129  A    between atoms: _323  and  _324
REMARK  130  A    between atoms: _334  and  _336
REMARK  131  A    between atoms: _336  and  _337
REMARK  132  A    between atoms: _336  and  _339
REMARK  133  A    between atoms: _339  and  _340
REMARK  134  A    between atoms: _343  and  _345
REMARK  135  A    between atoms: _345  and  _346
REMARK  136  A    between atoms: _345  and  _348
REMARK  137  A    between atoms: _348  and  _349
REMARK  138  A    between atoms: _354  and  _356
REMARK  139  A    between atoms: _356  and  _357
REMARK  140  A    between atoms: _356  and  _359
REMARK  141  A    between atoms: _359  and  _360
REMARK  142  A    between atoms: _360  and  _361
REMARK  143  A    between atoms: _361  and  _362
REMARK  144  A    between atoms: _362  and  ZN_637
REMARK  145  A    between atoms: _364  and  _366
REMARK  146  A    between atoms: _366  and  _367
REMARK  147  A    between atoms: _366  and  _369
REMARK  148  A    between atoms: _369  and  _370
REMARK  149  A    between atoms: _373  and  _375
REMARK  150  A    between atoms: _375  and  _376
REMARK  151  A    between atoms: _375  and  _378
REMARK  152  A    between atoms: _381  and  _383
REMARK  153  A    between atoms: _383  and  _384
REMARK  154  A    between atoms: _383  and  _386
REMARK  155  A    between atoms: _386  and  _387
REMARK  156  A    between atoms: _387  and  _388
REMARK  157  A    between atoms: _391  and  _393
REMARK  158  A    between atoms: _393  and  _394
REMARK  159  A    between atoms: _393  and  _396
REMARK  160  A    between atoms: _396  and  _397
REMARK  161  A    between atoms: _404  and  _405
REMARK  162  A    between atoms: _410  and  _412
REMARK  163  A    between atoms: _412  and  _413
REMARK  164  A    between atoms: _412  and  _415
REMARK  165  A    between atoms: _415  and  _416
REMARK  166  A    between atoms: _422  and  _424
REMARK  167  A    between atoms: _424  and  _425
REMARK  168  A    between atoms: _424  and  _427
REMARK  169  A    between atoms: _427  and  _428
REMARK  170  A    between atoms: _431  and  _433
REMARK  171  A    between atoms: _433  and  _434
REMARK  172  A    between atoms: _433  and  _436
REMARK  173  A    between atoms: _436  and  _437
REMARK  174  A    between atoms: _437  and  _438
REMARK  175  A    between atoms: _438  and  _439
REMARK  176  A    between atoms: _439  and  _440
REMARK  177  A    between atoms: _444  and  _446
REMARK  178  A    between atoms: _446  and  _447
REMARK  179  A    between atoms: _446  and  _449
REMARK  180  A    between atoms: _449  and  _450
REMARK  181  A    between atoms: _453  and  _455
REMARK  182  A    between atoms: _455  and  _456
REMARK  183  A    between atoms: _455  and  _458
REMARK  184  A    between atoms: _461  and  _463
REMARK  185  A    between atoms: _463  and  _464
REMARK  186  A    between atoms: _463  and  _466
REMARK  187  A    between atoms: _469  and  _471
REMARK  188  A    between atoms: _471  and  _472
REMARK  189  A    between atoms: _471  and  _474
REMARK  190  A    between atoms: _474  and  _475
REMARK  191  A    between atoms: _478  and  _480
REMARK  192  A    between atoms: _480  and  _481
REMARK  193  A    between atoms: _480  and  _483
REMARK  194  A    between atoms: _483  and  _484
REMARK  195  A    between atoms: _487  and  _489
REMARK  196  A    between atoms: _489  and  _490
REMARK  197  A    between atoms: _489  and  _492
REMARK  198  A    between atoms: _492  and  _493
REMARK  199  A    between atoms: _496  and  _498
REMARK  200  A    between atoms: _498  and  _499
REMARK  201  A    between atoms: _498  and  _501
REMARK  202  A    between atoms: _501  and  _502
REMARK  203  A    between atoms: _506  and  _507
REMARK  204  A    between atoms: _512  and  _514
REMARK  205  A    between atoms: _514  and  _515
REMARK  206  A    between atoms: _514  and  _517
REMARK  207  A    between atoms: _517  and  _518
REMARK  208  A    between atoms: _521  and  _523
REMARK  209  A    between atoms: _523  and  _524
REMARK  210  A    between atoms: _523  and  _526
REMARK  211  A    between atoms: _529  and  _531
REMARK  212  A    between atoms: _531  and  _532
REMARK  213  A    between atoms: _535  and  _537
REMARK  214  A    between atoms: _537  and  _538
REMARK  215  A    between atoms: _537  and  _540
REMARK  216  A    between atoms: _540  and  _541
REMARK  217  A    between atoms: _546  and  _547
REMARK  218  A    between atoms: _549  and  _551
REMARK  219  A    between atoms: _551  and  _552
REMARK  220  A    between atoms: _551  and  _554
REMARK  221  A    between atoms: _554  and  _555
REMARK  222  A    between atoms: _557  and  _559
REMARK  223  A    between atoms: _559  and  _560
REMARK  224  A    between atoms: _559  and  _562
REMARK  225  A    between atoms: _562  and  _563
REMARK  226  A    between atoms: _565  and  _567
REMARK  227  A    between atoms: _567  and  _568
REMARK  228  A    between atoms: _567  and  _570
REMARK  229  A    between atoms: _574  and  _575
REMARK  230  A    between atoms: _580  and  _582
REMARK  231  A    between atoms: _582  and  _583
REMARK  232  A    between atoms: _582  and  _585
REMARK  233  A    between atoms: _585  and  _586
REMARK  234  A    between atoms: _591  and  _592
REMARK  235  A    between atoms: _594  and  _596
REMARK  236  A    between atoms: _596  and  _597
REMARK  237  A    between atoms: _596  and  _599
REMARK  238  A    between atoms: _599  and  _600
REMARK  239  A    between atoms: _600  and  _601
REMARK  240  A    between atoms: _601  and  _602
REMARK  241  A    between atoms: _611  and  _613
REMARK  242  A    between atoms: _613  and  _614
REMARK  243  A    between atoms: _613  and  _616
REMARK  244  A    between atoms: _616  and  _617
REMARK  245  A    between atoms: _617  and  _618
REMARK  246  A    between atoms: _620  and  _622
REMARK  247  A    between atoms: _622  and  _623
REMARK  248  A    between atoms: _622  and  _625
REMARK  249  A    between atoms: _628  and  _630
REMARK  250  A    between atoms: _630  and  _631
REMARK  251  A    between atoms: _630  and  _633
REMARK  252  A    between atoms: _633  and  _634
REMARK                            x       y       z     vdW  Elec       q    Type
REMARK                         _______ _______ _______ _____ _____    ______ ____
ROOT
ATOM      1  O   HOH     1      34.081  77.040   1.527  0.00  0.00    +0.000 OA
ENDROOT
TORSDOF 0
REMARK  Name = ../refined-set-2016/3fh7/3fh7_pocket.pdb
REMARK  252 active torsions:
REMARK  status: ('A' for Active; 'I' for Inactive)
REMARK    1  A    between atoms: _1  and  _3
REMARK    2  A    between atoms: _3  and  _4
REMARK    3  A    between atoms: _3  and  _6
REMARK    4  A    between atoms: _8  and  _10
REMARK    5  A    between atoms: _10  and  _11
REMARK    6  A    between atoms: _10  and  _13
REMARK    7  A    between atoms: _13  and  _14
REMARK    8  A    between atoms: _16  and  _18
REMARK    9  A    between atoms: _18  and  _19
REMARK   10  A    between atoms: _18  and  _21
REMARK   11  A    between atoms: _21  and  _22
REMARK   12  A    between atoms: _22  and  _23
REMARK   13  A    between atoms: _28  and  _30
REMARK   14  A    between atoms: _30  and  _31
REMARK   15  A    between atoms: _30  and  _33
REMARK   16  A    between atoms: _35  and  _37
REMARK   17  A    between atoms: _37  and  _38
REMARK   18  A    between atoms: _37  and  _40
REMARK   19  A    between atoms: _40  and  _41
REMARK   20  A    between atoms: _41  and  _42
REMARK   21  A    between atoms: _47  and  _49
REMARK   22  A    between atoms: _49  and  _50
REMARK   23  A    between atoms: _53  and  _55
REMARK   24  A    between atoms: _55  and  _56
REMARK   25  A    between atoms: _55  and  _58
REMARK   26  A    between atoms: _58  and  _59
REMARK   27  A    between atoms: _62  and  _64
REMARK   28  A    between atoms: _64  and  _65
REMARK   29  A    between atoms: _64  and  _67
REMARK   30  A    between atoms: _67  and  _68
REMARK   31  A    between atoms: _73  and  _75
REMARK   32  A    between atoms: _75  and  _76
REMARK   33  A    between atoms: _75  and  _78
REMARK   34  A    between atoms: _78  and  _79
REMARK   35  A    between atoms: _84  and  _85
REMARK   36  A    between atoms: _87  and  _89
REMARK   37  A    between atoms: _89  and  _90
REMARK   38  A    between atoms: _89  and  _92
REMARK   39  A    between atoms: _92  and  _93
REMARK   40  A    between atoms: _100  and  _101
REMARK   41  A    between atoms: _106  and  _108
REMARK   42  A    between atoms: _108  and  _109
REMARK   43  A    between atoms: _108  and  _111
REMARK   44  A    between atoms: _111  and  _112
REMARK   45  A    between atoms: _117  and  _118
REMARK   46  A    between atoms: _120  and  _122
REMARK   47  A    between atoms: _122  and  _123
REMARK   48  A    between atoms: _125  and  _127
REMARK   49  A    between atoms: _127  and  _128
REMARK   50  A    between atoms: _130  and  _132
REMARK   51  A    between atoms: _132  and  _133
REMARK   52  A    between atoms: _132  and  _135
REMARK   53  A    between atoms: _135  and  _136
REMARK   54  A    between atoms: _136  and  _137
REMARK   55  A    between atoms: _139  and  _141
REMARK   56  A    between atoms: _141  and  _142
REMARK   57  A    between atoms: _141  and  _144
REMARK   58  A    between atoms: _144  and  _145
REMARK   59  A    between atoms: _145  and  _146
REMARK   60  A    between atoms: _149  and  _151
REMARK   61  A    between atoms: _151  and  _152
REMARK   62  A    between atoms: _151  and  _154
REMARK   63  A    between atoms: _154  and  _155
REMARK   64  A    between atoms: _160  and  _162
REMARK   65  A    between atoms: _162  and  _163
REMARK   66  A    between atoms: _162  and  _165
REMARK   67  A    between atoms: _165  and  _166
REMARK   68  A    between atoms: _169  and  _171
REMARK   69  A    between atoms: _171  and  _172
REMARK   70  A    between atoms: _171  and  _174
REMARK   71  A    between atoms: _174  and  _175
REMARK   72  A    between atoms: _181  and  _183
REMARK   73  A    between atoms: _183  and  _184
REMARK   74  A    between atoms: _183  and  _186
REMARK   75  A    between atoms: _189  and  _191
REMARK   76  A    between atoms: _191  and  _192
REMARK   77  A    between atoms: _191  and  _194
REMARK   78  A    between atoms: _194  and  _195
REMARK   79  A    between atoms: _199  and  ZN_637
REMARK   80  A    between atoms: _200  and  _202
REMARK   81  A    between atoms: _202  and  _203
REMARK   82  A    between atoms: _202  and  _205
REMARK   83  A    between atoms: _205  and  _206
REMARK   84  A    between atoms: _206  and  _207
REMARK   85  A    between atoms: _210  and  _212
REMARK   86  A    between atoms: _212  and  _213
REMARK   87  A    between atoms: _212  and  _215
REMARK   88  A    between atoms: _215  and  _216
REMARK   89  A    between atoms: _219  and  _221
REMARK   90  A    between atoms: _221  and  _222
REMARK   91  A    between atoms: _221  and  _224
REMARK   92  A    between atoms: _224  and  _225
REMARK   93  A    between atoms: _229  and  ZN_637
REMARK   94  A    between atoms: _230  and  _232
REMARK   95  A    between atoms: _232  and  _233
REMARK   96  A    between atoms: _232  and  _235
REMARK   97  A    between atoms: _235  and  _236
REMARK   98  A    between atoms: _239  and  _241
REMARK   99  A    between atoms: _241  and  _242
REMARK  100  A    between atoms: _241  and  _244
REMARK  101  A    between atoms: _244  and  _245
REMARK  102  A    between atoms: _250  and  _252
REMARK  103  A    between atoms: _252  and  _253
REMARK  104  A    between atoms: _252  and  _255
REMARK  105  A    between atoms: _255  and  _256
REMARK  106  A    between atoms: _261  and  _263
REMARK  107  A    between atoms: _263  and  _264
REMARK  108  A    between atoms: _263  and  _266
REMARK  109  A    between atoms: _266  and  _267
REMARK  110  A    between atoms: _270  and  _272
REMARK  111  A    between atoms: _272  and  _273
REMARK  112  A    between atoms: _272  and  _275
REMARK  113  A    between atoms: _275  and  _276
REMARK  114  A    between atoms: _286  and  _288
REMARK  115  A    between atoms: _288  and  _289
REMARK  116  A    between atoms: _288  and  _291
REMARK  117  A    between atoms: _291  and  _292
REMARK  118  A    between atoms: _295  and  _297
REMARK  119  A    between atoms: _297  and  _298
REMARK  120  A    between atoms: _297  and  _300
REMARK  121  A    between atoms: _300  and  _301
REMARK  122  A    between atoms: _306  and  _308
REMARK  123  A    between atoms: _308  and  _309
REMARK  124  A    between atoms: _308  and  _311
REMARK  125  A    between atoms: _311  and  _312
REMARK  126  A    between atoms: _318  and  _320
REMARK  127  A    between atoms: _320  and  _321
REMARK  128  A    between atoms: _320  and  _323
REMARK  129  A    between atoms: _323  and  _324
REMARK  130  A    between atoms: _334  and  _336
REMARK  131  A    between atoms: _336  and  _337
REMARK  132  A    between atoms: _336  and  _339
REMARK  133  A    between atoms: _339  and  _340
REMARK  134  A    between atoms: _343  and  _345
REMARK  135  A    between atoms: _345  and  _346
REMARK  136  A    between atoms: _345  and  _348
REMARK  137  A    between atoms: _348  and  _349
REMARK  138  A    between atoms: _354  and  _356
REMARK  139  A    between atoms: _356  and  _357
REMARK  140  A    between atoms: _356  and  _359
REMARK  141  A    between atoms: _359  and  _360
REMARK  142  A    between atoms: _360  and  _361
REMARK  143  A    between atoms: _361  and  _362
REMARK  144  A    between atoms: _362  and  ZN_637
REMARK  145  A    between atoms: _364  and  _366
REMARK  146  A    between atoms: _366  and  _367
REMARK  147  A    between atoms: _366  and  _369
REMARK  148  A    between atoms: _369  and  _370
REMARK  149  A    between atoms: _373  and  _375
REMARK  150  A    between atoms: _375  and  _376
REMARK  151  A    between atoms: _375  and  _378
REMARK  152  A    between atoms: _381  and  _383
REMARK  153  A    between atoms: _383  and  _384
REMARK  154  A    between atoms: _383  and  _386
REMARK  155  A    between atoms: _386  and  _387
REMARK  156  A    between atoms: _387  and  _388
REMARK  157  A    between atoms: _391  and  _393
REMARK  158  A    between atoms: _393  and  _394
REMARK  159  A    between atoms: _393  and  _396
REMARK  160  A    between atoms: _396  and  _397
REMARK  161  A    between atoms: _404  and  _405
REMARK  162  A    between atoms: _410  and  _412
REMARK  163  A    between atoms: _412  and  _413
REMARK  164  A    between atoms: _412  and  _415
REMARK  165  A    between atoms: _415  and  _416
REMARK  166  A    between atoms: _422  and  _424
REMARK  167  A    between atoms: _424  and  _425
REMARK  168  A    between atoms: _424  and  _427
REMARK  169  A    between atoms: _427  and  _428
REMARK  170  A    between atoms: _431  and  _433
REMARK  171  A    between atoms: _433  and  _434
REMARK  172  A    between atoms: _433  and  _436
REMARK  173  A    between atoms: _436  and  _437
REMARK  174  A    between atoms: _437  and  _438
REMARK  175  A    between atoms: _438  and  _439
REMARK  176  A    between atoms: _439  and  _440
REMARK  177  A    between atoms: _444  and  _446
REMARK  178  A    between atoms: _446  and  _447
REMARK  179  A    between atoms: _446  and  _449
REMARK  180  A    between atoms: _449  and  _450
REMARK  181  A    between atoms: _453  and  _455
REMARK  182  A    between atoms: _455  and  _456
REMARK  183  A    between atoms: _455  and  _458
REMARK  184  A    between atoms: _461  and  _463
REMARK  185  A    between atoms: _463  and  _464
REMARK  186  A    between atoms: _463  and  _466
REMARK  187  A    between atoms: _469  and  _471
REMARK  188  A    between atoms: _471  and  _472
REMARK  189  A    between atoms: _471  and  _474
REMARK  190  A    between atoms: _474  and  _475
REMARK  191  A    between atoms: _478  and  _480
REMARK  192  A    between atoms: _480  and  _481
REMARK  193  A    between atoms: _480  and  _483
REMARK  194  A    between atoms: _483  and  _484
REMARK  195  A    between atoms: _487  and  _489
REMARK  196  A    between atoms: _489  and  _490
REMARK  197  A    between atoms: _489  and  _492
REMARK  198  A    between atoms: _492  and  _493
REMARK  199  A    between atoms: _496  and  _498
REMARK  200  A    between atoms: _498  and  _499
REMARK  201  A    between atoms: _498  and  _501
REMARK  202  A    between atoms: _501  and  _502
REMARK  203  A    between atoms: _506  and  _507
REMARK  204  A    between atoms: _512  and  _514
REMARK  205  A    between atoms: _514  and  _515
REMARK  206  A    between atoms: _514  and  _517
REMARK  207  A    between atoms: _517  and  _518
REMARK  208  A    between atoms: _521  and  _523
REMARK  209  A    between atoms: _523  and  _524
REMARK  210  A    between atoms: _523  and  _526
REMARK  211  A    between atoms: _529  and  _531
REMARK  212  A    between atoms: _531  and  _532
REMARK  213  A    between atoms: _535  and  _537
REMARK  214  A    between atoms: _537  and  _538
REMARK  215  A    between atoms: _537  and  _540
REMARK  216  A    between atoms: _540  and  _541
REMARK  217  A    between atoms: _546  and  _547
REMARK  218  A    between atoms: _549  and  _551
REMARK  219  A    between atoms: _551  and  _552
REMARK  220  A    between atoms: _551  and  _554
REMARK  221  A    between atoms: _554  and  _555
REMARK  222  A    between atoms: _557  and  _559
REMARK  223  A    between atoms: _559  and  _560
REMARK  224  A    between atoms: _559  and  _562
REMARK  225  A    between atoms: _562  and  _563
REMARK  226  A    between atoms: _565  and  _567
REMARK  227  A    between atoms: _567  and  _568
REMARK  228  A    between atoms: _567  and  _570
REMARK  229  A    between atoms: _574  and  _575
REMARK  230  A    between atoms: _580  and  _582
REMARK  231  A    between atoms: _582  and  _583
REMARK  232  A    between atoms: _582  and  _585
REMARK  233  A    between atoms: _585  and  _586
REMARK  234  A    between atoms: _591  and  _592
REMARK  235  A    between atoms: _594  and  _596
REMARK  236  A    between atoms: _596  and  _597
REMARK  237  A    between atoms: _596  and  _599
REMARK  238  A    between atoms: _599  and  _600
REMARK  239  A    between atoms: _600  and  _601
REMARK  240  A    between atoms: _601  and  _602
REMARK  241  A    between atoms: _611  and  _613
REMARK  242  A    between atoms: _613  and  _614
REMARK  243  A    between atoms: _613  and  _616
REMARK  244  A    between atoms: _616  and  _617
REMARK  245  A    between atoms: _617  and  _618
REMARK  246  A    between atoms: _620  and  _622
REMARK  247  A    between atoms: _622  and  _623
REMARK  248  A    between atoms: _622  and  _625
REMARK  249  A    between atoms: _628  and  _630
REMARK  250  A    between atoms: _630  and  _631
REMARK  251  A    between atoms: _630  and  _633
REMARK  252  A    between atoms: _633  and  _634
REMARK                            x       y       z     vdW  Elec       q    Type
REMARK                         _______ _______ _______ _____ _____    ______ ____
ROOT
ATOM      1  O   HOH     1      29.354  86.240   5.416  0.00  0.00    +0.000 OA
ENDROOT
TORSDOF 0
REMARK  Name = ../refined-set-2016/3fh7/3fh7_pocket.pdb
REMARK  252 active torsions:
REMARK  status: ('A' for Active; 'I' for Inactive)
REMARK    1  A    between atoms: _1  and  _3
REMARK    2  A    between atoms: _3  and  _4
REMARK    3  A    between atoms: _3  and  _6
REMARK    4  A    between atoms: _8  and  _10
REMARK    5  A    between atoms: _10  and  _11
REMARK    6  A    between atoms: _10  and  _13
REMARK    7  A    between atoms: _13  and  _14
REMARK    8  A    between atoms: _16  and  _18
REMARK    9  A    between atoms: _18  and  _19
REMARK   10  A    between atoms: _18  and  _21
REMARK   11  A    between atoms: _21  and  _22
REMARK   12  A    between atoms: _22  and  _23
REMARK   13  A    between atoms: _28  and  _30
REMARK   14  A    between atoms: _30  and  _31
REMARK   15  A    between atoms: _30  and  _33
REMARK   16  A    between atoms: _35  and  _37
REMARK   17  A    between atoms: _37  and  _38
REMARK   18  A    between atoms: _37  and  _40
REMARK   19  A    between atoms: _40  and  _41
REMARK   20  A    between atoms: _41  and  _42
REMARK   21  A    between atoms: _47  and  _49
REMARK   22  A    between atoms: _49  and  _50
REMARK   23  A    between atoms: _53  and  _55
REMARK   24  A    between atoms: _55  and  _56
REMARK   25  A    between atoms: _55  and  _58
REMARK   26  A    between atoms: _58  and  _59
REMARK   27  A    between atoms: _62  and  _64
REMARK   28  A    between atoms: _64  and  _65
REMARK   29  A    between atoms: _64  and  _67
REMARK   30  A    between atoms: _67  and  _68
REMARK   31  A    between atoms: _73  and  _75
REMARK   32  A    between atoms: _75  and  _76
REMARK   33  A    between atoms: _75  and  _78
REMARK   34  A    between atoms: _78  and  _79
REMARK   35  A    between atoms: _84  and  _85
REMARK   36  A    between atoms: _87  and  _89
REMARK   37  A    between atoms: _89  and  _90
REMARK   38  A    between atoms: _89  and  _92
REMARK   39  A    between atoms: _92  and  _93
REMARK   40  A    between atoms: _100  and  _101
REMARK   41  A    between atoms: _106  and  _108
REMARK   42  A    between atoms: _108  and  _109
REMARK   43  A    between atoms: _108  and  _111
REMARK   44  A    between atoms: _111  and  _112
REMARK   45  A    between atoms: _117  and  _118
REMARK   46  A    between atoms: _120  and  _122
REMARK   47  A    between atoms: _122  and  _123
REMARK   48  A    between atoms: _125  and  _127
REMARK   49  A    between atoms: _127  and  _128
REMARK   50  A    between atoms: _130  and  _132
REMARK   51  A    between atoms: _132  and  _133
REMARK   52  A    between atoms: _132  and  _135
REMARK   53  A    between atoms: _135  and  _136
REMARK   54  A    between atoms: _136  and  _137
REMARK   55  A    between atoms: _139  and  _141
REMARK   56  A    between atoms: _141  and  _142
REMARK   57  A    between atoms: _141  and  _144
REMARK   58  A    between atoms: _144  and  _145
REMARK   59  A    between atoms: _145  and  _146
REMARK   60  A    between atoms: _149  and  _151
REMARK   61  A    between atoms: _151  and  _152
REMARK   62  A    between atoms: _151  and  _154
REMARK   63  A    between atoms: _154  and  _155
REMARK   64  A    between atoms: _160  and  _162
REMARK   65  A    between atoms: _162  and  _163
REMARK   66  A    between atoms: _162  and  _165
REMARK   67  A    between atoms: _165  and  _166
REMARK   68  A    between atoms: _169  and  _171
REMARK   69  A    between atoms: _171  and  _172
REMARK   70  A    between atoms: _171  and  _174
REMARK   71  A    between atoms: _174  and  _175
REMARK   72  A    between atoms: _181  and  _183
REMARK   73  A    between atoms: _183  and  _184
REMARK   74  A    between atoms: _183  and  _186
REMARK   75  A    between atoms: _189  and  _191
REMARK   76  A    between atoms: _191  and  _192
REMARK   77  A    between atoms: _191  and  _194
REMARK   78  A    between atoms: _194  and  _195
REMARK   79  A    between atoms: _199  and  ZN_637
REMARK   80  A    between atoms: _200  and  _202
REMARK   81  A    between atoms: _202  and  _203
REMARK   82  A    between atoms: _202  and  _205
REMARK   83  A    between atoms: _205  and  _206
REMARK   84  A    between atoms: _206  and  _207
REMARK   85  A    between atoms: _210  and  _212
REMARK   86  A    between atoms: _212  and  _213
REMARK   87  A    between atoms: _212  and  _215
REMARK   88  A    between atoms: _215  and  _216
REMARK   89  A    between atoms: _219  and  _221
REMARK   90  A    between atoms: _221  and  _222
REMARK   91  A    between atoms: _221  and  _224
REMARK   92  A    between atoms: _224  and  _225
REMARK   93  A    between atoms: _229  and  ZN_637
REMARK   94  A    between atoms: _230  and  _232
REMARK   95  A    between atoms: _232  and  _233
REMARK   96  A    between atoms: _232  and  _235
REMARK   97  A    between atoms: _235  and  _236
REMARK   98  A    between atoms: _239  and  _241
REMARK   99  A    between atoms: _241  and  _242
REMARK  100  A    between atoms: _241  and  _244
REMARK  101  A    between atoms: _244  and  _245
REMARK  102  A    between atoms: _250  and  _252
REMARK  103  A    between atoms: _252  and  _253
REMARK  104  A    between atoms: _252  and  _255
REMARK  105  A    between atoms: _255  and  _256
REMARK  106  A    between atoms: _261  and  _263
REMARK  107  A    between atoms: _263  and  _264
REMARK  108  A    between atoms: _263  and  _266
REMARK  109  A    between atoms: _266  and  _267
REMARK  110  A    between atoms: _270  and  _272
REMARK  111  A    between atoms: _272  and  _273
REMARK  112  A    between atoms: _272  and  _275
REMARK  113  A    between atoms: _275  and  _276
REMARK  114  A    between atoms: _286  and  _288
REMARK  115  A    between atoms: _288  and  _289
REMARK  116  A    between atoms: _288  and  _291
REMARK  117  A    between atoms: _291  and  _292
REMARK  118  A    between atoms: _295  and  _297
REMARK  119  A    between atoms: _297  and  _298
REMARK  120  A    between atoms: _297  and  _300
REMARK  121  A    between atoms: _300  and  _301
REMARK  122  A    between atoms: _306  and  _308
REMARK  123  A    between atoms: _308  and  _309
REMARK  124  A    between atoms: _308  and  _311
REMARK  125  A    between atoms: _311  and  _312
REMARK  126  A    between atoms: _318  and  _320
REMARK  127  A    between atoms: _320  and  _321
REMARK  128  A    between atoms: _320  and  _323
REMARK  129  A    between atoms: _323  and  _324
REMARK  130  A    between atoms: _334  and  _336
REMARK  131  A    between atoms: _336  and  _337
REMARK  132  A    between atoms: _336  and  _339
REMARK  133  A    between atoms: _339  and  _340
REMARK  134  A    between atoms: _343  and  _345
REMARK  135  A    between atoms: _345  and  _346
REMARK  136  A    between atoms: _345  and  _348
REMARK  137  A    between atoms: _348  and  _349
REMARK  138  A    between atoms: _354  and  _356
REMARK  139  A    between atoms: _356  and  _357
REMARK  140  A    between atoms: _356  and  _359
REMARK  141  A    between atoms: _359  and  _360
REMARK  142  A    between atoms: _360  and  _361
REMARK  143  A    between atoms: _361  and  _362
REMARK  144  A    between atoms: _362  and  ZN_637
REMARK  145  A    between atoms: _364  and  _366
REMARK  146  A    between atoms: _366  and  _367
REMARK  147  A    between atoms: _366  and  _369
REMARK  148  A    between atoms: _369  and  _370
REMARK  149  A    between atoms: _373  and  _375
REMARK  150  A    between atoms: _375  and  _376
REMARK  151  A    between atoms: _375  and  _378
REMARK  152  A    between atoms: _381  and  _383
REMARK  153  A    between atoms: _383  and  _384
REMARK  154  A    between atoms: _383  and  _386
REMARK  155  A    between atoms: _386  and  _387
REMARK  156  A    between atoms: _387  and  _388
REMARK  157  A    between atoms: _391  and  _393
REMARK  158  A    between atoms: _393  and  _394
REMARK  159  A    between atoms: _393  and  _396
REMARK  160  A    between atoms: _396  and  _397
REMARK  161  A    between atoms: _404  and  _405
REMARK  162  A    between atoms: _410  and  _412
REMARK  163  A    between atoms: _412  and  _413
REMARK  164  A    between atoms: _412  and  _415
REMARK  165  A    between atoms: _415  and  _416
REMARK  166  A    between atoms: _422  and  _424
REMARK  167  A    between atoms: _424  and  _425
REMARK  168  A    between atoms: _424  and  _427
REMARK  169  A    between atoms: _427  and  _428
REMARK  170  A    between atoms: _431  and  _433
REMARK  171  A    between atoms: _433  and  _434
REMARK  172  A    between atoms: _433  and  _436
REMARK  173  A    between atoms: _436  and  _437
REMARK  174  A    between atoms: _437  and  _438
REMARK  175  A    between atoms: _438  and  _439
REMARK  176  A    between atoms: _439  and  _440
REMARK  177  A    between atoms: _444  and  _446
REMARK  178  A    between atoms: _446  and  _447
REMARK  179  A    between atoms: _446  and  _449
REMARK  180  A    between atoms: _449  and  _450
REMARK  181  A    between atoms: _453  and  _455
REMARK  182  A    between atoms: _455  and  _456
REMARK  183  A    between atoms: _455  and  _458
REMARK  184  A    between atoms: _461  and  _463
REMARK  185  A    between atoms: _463  and  _464
REMARK  186  A    between atoms: _463  and  _466
REMARK  187  A    between atoms: _469  and  _471
REMARK  188  A    between atoms: _471  and  _472
REMARK  189  A    between atoms: _471  and  _474
REMARK  190  A    between atoms: _474  and  _475
REMARK  191  A    between atoms: _478  and  _480
REMARK  192  A    between atoms: _480  and  _481
REMARK  193  A    between atoms: _480  and  _483
REMARK  194  A    between atoms: _483  and  _484
REMARK  195  A    between atoms: _487  and  _489
REMARK  196  A    between atoms: _489  and  _490
REMARK  197  A    between atoms: _489  and  _492
REMARK  198  A    between atoms: _492  and  _493
REMARK  199  A    between atoms: _496  and  _498
REMARK  200  A    between atoms: _498  and  _499
REMARK  201  A    between atoms: _498  and  _501
REMARK  202  A    between atoms: _501  and  _502
REMARK  203  A    between atoms: _506  and  _507
REMARK  204  A    between atoms: _512  and  _514
REMARK  205  A    between atoms: _514  and  _515
REMARK  206  A    between atoms: _514  and  _517
REMARK  207  A    between atoms: _517  and  _518
REMARK  208  A    between atoms: _521  and  _523
REMARK  209  A    between atoms: _523  and  _524
REMARK  210  A    between atoms: _523  and  _526
REMARK  211  A    between atoms: _529  and  _531
REMARK  212  A    between atoms: _531  and  _532
REMARK  213  A    between atoms: _535  and  _537
REMARK  214  A    between atoms: _537  and  _538
REMARK  215  A    between atoms: _537  and  _540
REMARK  216  A    between atoms: _540  and  _541
REMARK  217  A    between atoms: _546  and  _547
REMARK  218  A    between atoms: _549  and  _551
REMARK  219  A    between atoms: _551  and  _552
REMARK  220  A    between atoms: _551  and  _554
REMARK  221  A    between atoms: _554  and  _555
REMARK  222  A    between atoms: _557  and  _559
REMARK  223  A    between atoms: _559  and  _560
REMARK  224  A    between atoms: _559  and  _562
REMARK  225  A    between atoms: _562  and  _563
REMARK  226  A    between atoms: _565  and  _567
REMARK  227  A    between atoms: _567  and  _568
REMARK  228  A    between atoms: _567  and  _570
REMARK  229  A    between atoms: _574  and  _575
REMARK  230  A    between atoms: _580  and  _582
REMARK  231  A    between atoms: _582  and  _583
REMARK  232  A    between atoms: _582  and  _585
REMARK  233  A    between atoms: _585  and  _586
REMARK  234  A    between atoms: _591  and  _592
REMARK  235  A    between atoms: _594  and  _596
REMARK  236  A    between atoms: _596  and  _597
REMARK  237  A    between atoms: _596  and  _599
REMARK  238  A    between atoms: _599  and  _600
REMARK  239  A    between atoms: _600  and  _601
REMARK  240  A    between atoms: _601  and  _602
REMARK  241  A    between atoms: _611  and  _613
REMARK  242  A    between atoms: _613  and  _614
REMARK  243  A    between atoms: _613  and  _616
REMARK  244  A    between atoms: _616  and  _617
REMARK  245  A    between atoms: _617  and  _618
REMARK  246  A    between atoms: _620  and  _622
REMARK  247  A    between atoms: _622  and  _623
REMARK  248  A    between atoms: _622  and  _625
REMARK  249  A    between atoms: _628  and  _630
REMARK  250  A    between atoms: _630  and  _631
REMARK  251  A    between atoms: _630  and  _633
REMARK  252  A    between atoms: _633  and  _634
REMARK                            x       y       z     vdW  Elec       q    Type
REMARK                         _______ _______ _______ _____ _____    ______ ____
ROOT
ATOM      1  O   HOH     1      34.426  85.823  -1.398  0.00  0.00    +0.000 OA
ENDROOT
TORSDOF 0
REMARK  Name = ../refined-set-2016/3fh7/3fh7_pocket.pdb
REMARK  252 active torsions:
REMARK  status: ('A' for Active; 'I' for Inactive)
REMARK    1  A    between atoms: _1  and  _3
REMARK    2  A    between atoms: _3  and  _4
REMARK    3  A    between atoms: _3  and  _6
REMARK    4  A    between atoms: _8  and  _10
REMARK    5  A    between atoms: _10  and  _11
REMARK    6  A    between atoms: _10  and  _13
REMARK    7  A    between atoms: _13  and  _14
REMARK    8  A    between atoms: _16  and  _18
REMARK    9  A    between atoms: _18  and  _19
REMARK   10  A    between atoms: _18  and  _21
REMARK   11  A    between atoms: _21  and  _22
REMARK   12  A    between atoms: _22  and  _23
REMARK   13  A    between atoms: _28  and  _30
REMARK   14  A    between atoms: _30  and  _31
REMARK   15  A    between atoms: _30  and  _33
REMARK   16  A    between atoms: _35  and  _37
REMARK   17  A    between atoms: _37  and  _38
REMARK   18  A    between atoms: _37  and  _40
REMARK   19  A    between atoms: _40  and  _41
REMARK   20  A    between atoms: _41  and  _42
REMARK   21  A    between atoms: _47  and  _49
REMARK   22  A    between atoms: _49  and  _50
REMARK   23  A    between atoms: _53  and  _55
REMARK   24  A    between atoms: _55  and  _56
REMARK   25  A    between atoms: _55  and  _58
REMARK   26  A    between atoms: _58  and  _59
REMARK   27  A    between atoms: _62  and  _64
REMARK   28  A    between atoms: _64  and  _65
REMARK   29  A    between atoms: _64  and  _67
REMARK   30  A    between atoms: _67  and  _68
REMARK   31  A    between atoms: _73  and  _75
REMARK   32  A    between atoms: _75  and  _76
REMARK   33  A    between atoms: _75  and  _78
REMARK   34  A    between atoms: _78  and  _79
REMARK   35  A    between atoms: _84  and  _85
REMARK   36  A    between atoms: _87  and  _89
REMARK   37  A    between atoms: _89  and  _90
REMARK   38  A    between atoms: _89  and  _92
REMARK   39  A    between atoms: _92  and  _93
REMARK   40  A    between atoms: _100  and  _101
REMARK   41  A    between atoms: _106  and  _108
REMARK   42  A    between atoms: _108  and  _109
REMARK   43  A    between atoms: _108  and  _111
REMARK   44  A    between atoms: _111  and  _112
REMARK   45  A    between atoms: _117  and  _118
REMARK   46  A    between atoms: _120  and  _122
REMARK   47  A    between atoms: _122  and  _123
REMARK   48  A    between atoms: _125  and  _127
REMARK   49  A    between atoms: _127  and  _128
REMARK   50  A    between atoms: _130  and  _132
REMARK   51  A    between atoms: _132  and  _133
REMARK   52  A    between atoms: _132  and  _135
REMARK   53  A    between atoms: _135  and  _136
REMARK   54  A    between atoms: _136  and  _137
REMARK   55  A    between atoms: _139  and  _141
REMARK   56  A    between atoms: _141  and  _142
REMARK   57  A    between atoms: _141  and  _144
REMARK   58  A    between atoms: _144  and  _145
REMARK   59  A    between atoms: _145  and  _146
REMARK   60  A    between atoms: _149  and  _151
REMARK   61  A    between atoms: _151  and  _152
REMARK   62  A    between atoms: _151  and  _154
REMARK   63  A    between atoms: _154  and  _155
REMARK   64  A    between atoms: _160  and  _162
REMARK   65  A    between atoms: _162  and  _163
REMARK   66  A    between atoms: _162  and  _165
REMARK   67  A    between atoms: _165  and  _166
REMARK   68  A    between atoms: _169  and  _171
REMARK   69  A    between atoms: _171  and  _172
REMARK   70  A    between atoms: _171  and  _174
REMARK   71  A    between atoms: _174  and  _175
REMARK   72  A    between atoms: _181  and  _183
REMARK   73  A    between atoms: _183  and  _184
REMARK   74  A    between atoms: _183  and  _186
REMARK   75  A    between atoms: _189  and  _191
REMARK   76  A    between atoms: _191  and  _192
REMARK   77  A    between atoms: _191  and  _194
REMARK   78  A    between atoms: _194  and  _195
REMARK   79  A    between atoms: _199  and  ZN_637
REMARK   80  A    between atoms: _200  and  _202
REMARK   81  A    between atoms: _202  and  _203
REMARK   82  A    between atoms: _202  and  _205
REMARK   83  A    between atoms: _205  and  _206
REMARK   84  A    between atoms: _206  and  _207
REMARK   85  A    between atoms: _210  and  _212
REMARK   86  A    between atoms: _212  and  _213
REMARK   87  A    between atoms: _212  and  _215
REMARK   88  A    between atoms: _215  and  _216
REMARK   89  A    between atoms: _219  and  _221
REMARK   90  A    between atoms: _221  and  _222
REMARK   91  A    between atoms: _221  and  _224
REMARK   92  A    between atoms: _224  and  _225
REMARK   93  A    between atoms: _229  and  ZN_637
REMARK   94  A    between atoms: _230  and  _232
REMARK   95  A    between atoms: _232  and  _233
REMARK   96  A    between atoms: _232  and  _235
REMARK   97  A    between atoms: _235  and  _236
REMARK   98  A    between atoms: _239  and  _241
REMARK   99  A    between atoms: _241  and  _242
REMARK  100  A    between atoms: _241  and  _244
REMARK  101  A    between atoms: _244  and  _245
REMARK  102  A    between atoms: _250  and  _252
REMARK  103  A    between atoms: _252  and  _253
REMARK  104  A    between atoms: _252  and  _255
REMARK  105  A    between atoms: _255  and  _256
REMARK  106  A    between atoms: _261  and  _263
REMARK  107  A    between atoms: _263  and  _264
REMARK  108  A    between atoms: _263  and  _266
REMARK  109  A    between atoms: _266  and  _267
REMARK  110  A    between atoms: _270  and  _272
REMARK  111  A    between atoms: _272  and  _273
REMARK  112  A    between atoms: _272  and  _275
REMARK  113  A    between atoms: _275  and  _276
REMARK  114  A    between atoms: _286  and  _288
REMARK  115  A    between atoms: _288  and  _289
REMARK  116  A    between atoms: _288  and  _291
REMARK  117  A    between atoms: _291  and  _292
REMARK  118  A    between atoms: _295  and  _297
REMARK  119  A    between atoms: _297  and  _298
REMARK  120  A    between atoms: _297  and  _300
REMARK  121  A    between atoms: _300  and  _301
REMARK  122  A    between atoms: _306  and  _308
REMARK  123  A    between atoms: _308  and  _309
REMARK  124  A    between atoms: _308  and  _311
REMARK  125  A    between atoms: _311  and  _312
REMARK  126  A    between atoms: _318  and  _320
REMARK  127  A    between atoms: _320  and  _321
REMARK  128  A    between atoms: _320  and  _323
REMARK  129  A    between atoms: _323  and  _324
REMARK  130  A    between atoms: _334  and  _336
REMARK  131  A    between atoms: _336  and  _337
REMARK  132  A    between atoms: _336  and  _339
REMARK  133  A    between atoms: _339  and  _340
REMARK  134  A    between atoms: _343  and  _345
REMARK  135  A    between atoms: _345  and  _346
REMARK  136  A    between atoms: _345  and  _348
REMARK  137  A    between atoms: _348  and  _349
REMARK  138  A    between atoms: _354  and  _356
REMARK  139  A    between atoms: _356  and  _357
REMARK  140  A    between atoms: _356  and  _359
REMARK  141  A    between atoms: _359  and  _360
REMARK  142  A    between atoms: _360  and  _361
REMARK  143  A    between atoms: _361  and  _362
REMARK  144  A    between atoms: _362  and  ZN_637
REMARK  145  A    between atoms: _364  and  _366
REMARK  146  A    between atoms: _366  and  _367
REMARK  147  A    between atoms: _366  and  _369
REMARK  148  A    between atoms: _369  and  _370
REMARK  149  A    between atoms: _373  and  _375
REMARK  150  A    between atoms: _375  and  _376
REMARK  151  A    between atoms: _375  and  _378
REMARK  152  A    between atoms: _381  and  _383
REMARK  153  A    between atoms: _383  and  _384
REMARK  154  A    between atoms: _383  and  _386
REMARK  155  A    between atoms: _386  and  _387
REMARK  156  A    between atoms: _387  and  _388
REMARK  157  A    between atoms: _391  and  _393
REMARK  158  A    between atoms: _393  and  _394
REMARK  159  A    between atoms: _393  and  _396
REMARK  160  A    between atoms: _396  and  _397
REMARK  161  A    between atoms: _404  and  _405
REMARK  162  A    between atoms: _410  and  _412
REMARK  163  A    between atoms: _412  and  _413
REMARK  164  A    between atoms: _412  and  _415
REMARK  165  A    between atoms: _415  and  _416
REMARK  166  A    between atoms: _422  and  _424
REMARK  167  A    between atoms: _424  and  _425
REMARK  168  A    between atoms: _424  and  _427
REMARK  169  A    between atoms: _427  and  _428
REMARK  170  A    between atoms: _431  and  _433
REMARK  171  A    between atoms: _433  and  _434
REMARK  172  A    between atoms: _433  and  _436
REMARK  173  A    between atoms: _436  and  _437
REMARK  174  A    between atoms: _437  and  _438
REMARK  175  A    between atoms: _438  and  _439
REMARK  176  A    between atoms: _439  and  _440
REMARK  177  A    between atoms: _444  and  _446
REMARK  178  A    between atoms: _446  and  _447
REMARK  179  A    between atoms: _446  and  _449
REMARK  180  A    between atoms: _449  and  _450
REMARK  181  A    between atoms: _453  and  _455
REMARK  182  A    between atoms: _455  and  _456
REMARK  183  A    between atoms: _455  and  _458
REMARK  184  A    between atoms: _461  and  _463
REMARK  185  A    between atoms: _463  and  _464
REMARK  186  A    between atoms: _463  and  _466
REMARK  187  A    between atoms: _469  and  _471
REMARK  188  A    between atoms: _471  and  _472
REMARK  189  A    between atoms: _471  and  _474
REMARK  190  A    between atoms: _474  and  _475
REMARK  191  A    between atoms: _478  and  _480
REMARK  192  A    between atoms: _480  and  _481
REMARK  193  A    between atoms: _480  and  _483
REMARK  194  A    between atoms: _483  and  _484
REMARK  195  A    between atoms: _487  and  _489
REMARK  196  A    between atoms: _489  and  _490
REMARK  197  A    between atoms: _489  and  _492
REMARK  198  A    between atoms: _492  and  _493
REMARK  199  A    between atoms: _496  and  _498
REMARK  200  A    between atoms: _498  and  _499
REMARK  201  A    between atoms: _498  and  _501
REMARK  202  A    between atoms: _501  and  _502
REMARK  203  A    between atoms: _506  and  _507
REMARK  204  A    between atoms: _512  and  _514
REMARK  205  A    between atoms: _514  and  _515
REMARK  206  A    between atoms: _514  and  _517
REMARK  207  A    between atoms: _517  and  _518
REMARK  208  A    between atoms: _521  and  _523
REMARK  209  A    between atoms: _523  and  _524
REMARK  210  A    between atoms: _523  and  _526
REMARK  211  A    between atoms: _529  and  _531
REMARK  212  A    between atoms: _531  and  _532
REMARK  213  A    between atoms: _535  and  _537
REMARK  214  A    between atoms: _537  and  _538
REMARK  215  A    between atoms: _537  and  _540
REMARK  216  A    between atoms: _540  and  _541
REMARK  217  A    between atoms: _546  and  _547
REMARK  218  A    between atoms: _549  and  _551
REMARK  219  A    between atoms: _551  and  _552
REMARK  220  A    between atoms: _551  and  _554
REMARK  221  A    between atoms: _554  and  _555
REMARK  222  A    between atoms: _557  and  _559
REMARK  223  A    between atoms: _559  and  _560
REMARK  224  A    between atoms: _559  and  _562
REMARK  225  A    between atoms: _562  and  _563
REMARK  226  A    between atoms: _565  and  _567
REMARK  227  A    between atoms: _567  and  _568
REMARK  228  A    between atoms: _567  and  _570
REMARK  229  A    between atoms: _574  and  _575
REMARK  230  A    between atoms: _580  and  _582
REMARK  231  A    between atoms: _582  and  _583
REMARK  232  A    between atoms: _582  and  _585
REMARK  233  A    between atoms: _585  and  _586
REMARK  234  A    between atoms: _591  and  _592
REMARK  235  A    between atoms: _594  and  _596
REMARK  236  A    between atoms: _596  and  _597
REMARK  237  A    between atoms: _596  and  _599
REMARK  238  A    between atoms: _599  and  _600
REMARK  239  A    between atoms: _600  and  _601
REMARK  240  A    between atoms: _601  and  _602
REMARK  241  A    between atoms: _611  and  _613
REMARK  242  A    between atoms: _613  and  _614
REMARK  243  A    between atoms: _613  and  _616
REMARK  244  A    between atoms: _616  and  _617
REMARK  245  A    between atoms: _617  and  _618
REMARK  246  A    between atoms: _620  and  _622
REMARK  247  A    between atoms: _622  and  _623
REMARK  248  A    between atoms: _622  and  _625
REMARK  249  A    between atoms: _628  and  _630
REMARK  250  A    between atoms: _630  and  _631
REMARK  251  A    between atoms: _630  and  _633
REMARK  252  A    between atoms: _633  and  _634
REMARK                            x       y       z     vdW  Elec       q    Type
REMARK                         _______ _______ _______ _____ _____    ______ ____
ROOT
ATOM      1  O   HOH     1      22.654  82.898  -8.051  0.00  0.00    +0.000 OA
ENDROOT
TORSDOF 0
REMARK  Name = ../refined-set-2016/3fh7/3fh7_pocket.pdb
REMARK  252 active torsions:
REMARK  status: ('A' for Active; 'I' for Inactive)
REMARK    1  A    between atoms: _1  and  _3
REMARK    2  A    between atoms: _3  and  _4
REMARK    3  A    between atoms: _3  and  _6
REMARK    4  A    between atoms: _8  and  _10
REMARK    5  A    between atoms: _10  and  _11
REMARK    6  A    between atoms: _10  and  _13
REMARK    7  A    between atoms: _13  and  _14
REMARK    8  A    between atoms: _16  and  _18
REMARK    9  A    between atoms: _18  and  _19
REMARK   10  A    between atoms: _18  and  _21
REMARK   11  A    between atoms: _21  and  _22
REMARK   12  A    between atoms: _22  and  _23
REMARK   13  A    between atoms: _28  and  _30
REMARK   14  A    between atoms: _30  and  _31
REMARK   15  A    between atoms: _30  and  _33
REMARK   16  A    between atoms: _35  and  _37
REMARK   17  A    between atoms: _37  and  _38
REMARK   18  A    between atoms: _37  and  _40
REMARK   19  A    between atoms: _40  and  _41
REMARK   20  A    between atoms: _41  and  _42
REMARK   21  A    between atoms: _47  and  _49
REMARK   22  A    between atoms: _49  and  _50
REMARK   23  A    between atoms: _53  and  _55
REMARK   24  A    between atoms: _55  and  _56
REMARK   25  A    between atoms: _55  and  _58
REMARK   26  A    between atoms: _58  and  _59
REMARK   27  A    between atoms: _62  and  _64
REMARK   28  A    between atoms: _64  and  _65
REMARK   29  A    between atoms: _64  and  _67
REMARK   30  A    between atoms: _67  and  _68
REMARK   31  A    between atoms: _73  and  _75
REMARK   32  A    between atoms: _75  and  _76
REMARK   33  A    between atoms: _75  and  _78
REMARK   34  A    between atoms: _78  and  _79
REMARK   35  A    between atoms: _84  and  _85
REMARK   36  A    between atoms: _87  and  _89
REMARK   37  A    between atoms: _89  and  _90
REMARK   38  A    between atoms: _89  and  _92
REMARK   39  A    between atoms: _92  and  _93
REMARK   40  A    between atoms: _100  and  _101
REMARK   41  A    between atoms: _106  and  _108
REMARK   42  A    between atoms: _108  and  _109
REMARK   43  A    between atoms: _108  and  _111
REMARK   44  A    between atoms: _111  and  _112
REMARK   45  A    between atoms: _117  and  _118
REMARK   46  A    between atoms: _120  and  _122
REMARK   47  A    between atoms: _122  and  _123
REMARK   48  A    between atoms: _125  and  _127
REMARK   49  A    between atoms: _127  and  _128
REMARK   50  A    between atoms: _130  and  _132
REMARK   51  A    between atoms: _132  and  _133
REMARK   52  A    between atoms: _132  and  _135
REMARK   53  A    between atoms: _135  and  _136
REMARK   54  A    between atoms: _136  and  _137
REMARK   55  A    between atoms: _139  and  _141
REMARK   56  A    between atoms: _141  and  _142
REMARK   57  A    between atoms: _141  and  _144
REMARK   58  A    between atoms: _144  and  _145
REMARK   59  A    between atoms: _145  and  _146
REMARK   60  A    between atoms: _149  and  _151
REMARK   61  A    between atoms: _151  and  _152
REMARK   62  A    between atoms: _151  and  _154
REMARK   63  A    between atoms: _154  and  _155
REMARK   64  A    between atoms: _160  and  _162
REMARK   65  A    between atoms: _162  and  _163
REMARK   66  A    between atoms: _162  and  _165
REMARK   67  A    between atoms: _165  and  _166
REMARK   68  A    between atoms: _169  and  _171
REMARK   69  A    between atoms: _171  and  _172
REMARK   70  A    between atoms: _171  and  _174
REMARK   71  A    between atoms: _174  and  _175
REMARK   72  A    between atoms: _181  and  _183
REMARK   73  A    between atoms: _183  and  _184
REMARK   74  A    between atoms: _183  and  _186
REMARK   75  A    between atoms: _189  and  _191
REMARK   76  A    between atoms: _191  and  _192
REMARK   77  A    between atoms: _191  and  _194
REMARK   78  A    between atoms: _194  and  _195
REMARK   79  A    between atoms: _199  and  ZN_637
REMARK   80  A    between atoms: _200  and  _202
REMARK   81  A    between atoms: _202  and  _203
REMARK   82  A    between atoms: _202  and  _205
REMARK   83  A    between atoms: _205  and  _206
REMARK   84  A    between atoms: _206  and  _207
REMARK   85  A    between atoms: _210  and  _212
REMARK   86  A    between atoms: _212  and  _213
REMARK   87  A    between atoms: _212  and  _215
REMARK   88  A    between atoms: _215  and  _216
REMARK   89  A    between atoms: _219  and  _221
REMARK   90  A    between atoms: _221  and  _222
REMARK   91  A    between atoms: _221  and  _224
REMARK   92  A    between atoms: _224  and  _225
REMARK   93  A    between atoms: _229  and  ZN_637
REMARK   94  A    between atoms: _230  and  _232
REMARK   95  A    between atoms: _232  and  _233
REMARK   96  A    between atoms: _232  and  _235
REMARK   97  A    between atoms: _235  and  _236
REMARK   98  A    between atoms: _239  and  _241
REMARK   99  A    between atoms: _241  and  _242
REMARK  100  A    between atoms: _241  and  _244
REMARK  101  A    between atoms: _244  and  _245
REMARK  102  A    between atoms: _250  and  _252
REMARK  103  A    between atoms: _252  and  _253
REMARK  104  A    between atoms: _252  and  _255
REMARK  105  A    between atoms: _255  and  _256
REMARK  106  A    between atoms: _261  and  _263
REMARK  107  A    between atoms: _263  and  _264
REMARK  108  A    between atoms: _263  and  _266
REMARK  109  A    between atoms: _266  and  _267
REMARK  110  A    between atoms: _270  and  _272
REMARK  111  A    between atoms: _272  and  _273
REMARK  112  A    between atoms: _272  and  _275
REMARK  113  A    between atoms: _275  and  _276
REMARK  114  A    between atoms: _286  and  _288
REMARK  115  A    between atoms: _288  and  _289
REMARK  116  A    between atoms: _288  and  _291
REMARK  117  A    between atoms: _291  and  _292
REMARK  118  A    between atoms: _295  and  _297
REMARK  119  A    between atoms: _297  and  _298
REMARK  120  A    between atoms: _297  and  _300
REMARK  121  A    between atoms: _300  and  _301
REMARK  122  A    between atoms: _306  and  _308
REMARK  123  A    between atoms: _308  and  _309
REMARK  124  A    between atoms: _308  and  _311
REMARK  125  A    between atoms: _311  and  _312
REMARK  126  A    between atoms: _318  and  _320
REMARK  127  A    between atoms: _320  and  _321
REMARK  128  A    between atoms: _320  and  _323
REMARK  129  A    between atoms: _323  and  _324
REMARK  130  A    between atoms: _334  and  _336
REMARK  131  A    between atoms: _336  and  _337
REMARK  132  A    between atoms: _336  and  _339
REMARK  133  A    between atoms: _339  and  _340
REMARK  134  A    between atoms: _343  and  _345
REMARK  135  A    between atoms: _345  and  _346
REMARK  136  A    between atoms: _345  and  _348
REMARK  137  A    between atoms: _348  and  _349
REMARK  138  A    between atoms: _354  and  _356
REMARK  139  A    between atoms: _356  and  _357
REMARK  140  A    between atoms: _356  and  _359
REMARK  141  A    between atoms: _359  and  _360
REMARK  142  A    between atoms: _360  and  _361
REMARK  143  A    between atoms: _361  and  _362
REMARK  144  A    between atoms: _362  and  ZN_637
REMARK  145  A    between atoms: _364  and  _366
REMARK  146  A    between atoms: _366  and  _367
REMARK  147  A    between atoms: _366  and  _369
REMARK  148  A    between atoms: _369  and  _370
REMARK  149  A    between atoms: _373  and  _375
REMARK  150  A    between atoms: _375  and  _376
REMARK  151  A    between atoms: _375  and  _378
REMARK  152  A    between atoms: _381  and  _383
REMARK  153  A    between atoms: _383  and  _384
REMARK  154  A    between atoms: _383  and  _386
REMARK  155  A    between atoms: _386  and  _387
REMARK  156  A    between atoms: _387  and  _388
REMARK  157  A    between atoms: _391  and  _393
REMARK  158  A    between atoms: _393  and  _394
REMARK  159  A    between atoms: _393  and  _396
REMARK  160  A    between atoms: _396  and  _397
REMARK  161  A    between atoms: _404  and  _405
REMARK  162  A    between atoms: _410  and  _412
REMARK  163  A    between atoms: _412  and  _413
REMARK  164  A    between atoms: _412  and  _415
REMARK  165  A    between atoms: _415  and  _416
REMARK  166  A    between atoms: _422  and  _424
REMARK  167  A    between atoms: _424  and  _425
REMARK  168  A    between atoms: _424  and  _427
REMARK  169  A    between atoms: _427  and  _428
REMARK  170  A    between atoms: _431  and  _433
REMARK  171  A    between atoms: _433  and  _434
REMARK  172  A    between atoms: _433  and  _436
REMARK  173  A    between atoms: _436  and  _437
REMARK  174  A    between atoms: _437  and  _438
REMARK  175  A    between atoms: _438  and  _439
REMARK  176  A    between atoms: _439  and  _440
REMARK  177  A    between atoms: _444  and  _446
REMARK  178  A    between atoms: _446  and  _447
REMARK  179  A    between atoms: _446  and  _449
REMARK  180  A    between atoms: _449  and  _450
REMARK  181  A    between atoms: _453  and  _455
REMARK  182  A    between atoms: _455  and  _456
REMARK  183  A    between atoms: _455  and  _458
REMARK  184  A    between atoms: _461  and  _463
REMARK  185  A    between atoms: _463  and  _464
REMARK  186  A    between atoms: _463  and  _466
REMARK  187  A    between atoms: _469  and  _471
REMARK  188  A    between atoms: _471  and  _472
REMARK  189  A    between atoms: _471  and  _474
REMARK  190  A    between atoms: _474  and  _475
REMARK  191  A    between atoms: _478  and  _480
REMARK  192  A    between atoms: _480  and  _481
REMARK  193  A    between atoms: _480  and  _483
REMARK  194  A    between atoms: _483  and  _484
REMARK  195  A    between atoms: _487  and  _489
REMARK  196  A    between atoms: _489  and  _490
REMARK  197  A    between atoms: _489  and  _492
REMARK  198  A    between atoms: _492  and  _493
REMARK  199  A    between atoms: _496  and  _498
REMARK  200  A    between atoms: _498  and  _499
REMARK  201  A    between atoms: _498  and  _501
REMARK  202  A    between atoms: _501  and  _502
REMARK  203  A    between atoms: _506  and  _507
REMARK  204  A    between atoms: _512  and  _514
REMARK  205  A    between atoms: _514  and  _515
REMARK  206  A    between atoms: _514  and  _517
REMARK  207  A    between atoms: _517  and  _518
REMARK  208  A    between atoms: _521  and  _523
REMARK  209  A    between atoms: _523  and  _524
REMARK  210  A    between atoms: _523  and  _526
REMARK  211  A    between atoms: _529  and  _531
REMARK  212  A    between atoms: _531  and  _532
REMARK  213  A    between atoms: _535  and  _537
REMARK  214  A    between atoms: _537  and  _538
REMARK  215  A    between atoms: _537  and  _540
REMARK  216  A    between atoms: _540  and  _541
REMARK  217  A    between atoms: _546  and  _547
REMARK  218  A    between atoms: _549  and  _551
REMARK  219  A    between atoms: _551  and  _552
REMARK  220  A    between atoms: _551  and  _554
REMARK  221  A    between atoms: _554  and  _555
REMARK  222  A    between atoms: _557  and  _559
REMARK  223  A    between atoms: _559  and  _560
REMARK  224  A    between atoms: _559  and  _562
REMARK  225  A    between atoms: _562  and  _563
REMARK  226  A    between atoms: _565  and  _567
REMARK  227  A    between atoms: _567  and  _568
REMARK  228  A    between atoms: _567  and  _570
REMARK  229  A    between atoms: _574  and  _575
REMARK  230  A    between atoms: _580  and  _582
REMARK  231  A    between atoms: _582  and  _583
REMARK  232  A    between atoms: _582  and  _585
REMARK  233  A    between atoms: _585  and  _586
REMARK  234  A    between atoms: _591  and  _592
REMARK  235  A    between atoms: _594  and  _596
REMARK  236  A    between atoms: _596  and  _597
REMARK  237  A    between atoms: _596  and  _599
REMARK  238  A    between atoms: _599  and  _600
REMARK  239  A    between atoms: _600  and  _601
REMARK  240  A    between atoms: _601  and  _602
REMARK  241  A    between atoms: _611  and  _613
REMARK  242  A    between atoms: _613  and  _614
REMARK  243  A    between atoms: _613  and  _616
REMARK  244  A    between atoms: _616  and  _617
REMARK  245  A    between atoms: _617  and  _618
REMARK  246  A    between atoms: _620  and  _622
REMARK  247  A    between atoms: _622  and  _623
REMARK  248  A    between atoms: _622  and  _625
REMARK  249  A    between atoms: _628  and  _630
REMARK  250  A    between atoms: _630  and  _631
REMARK  251  A    between atoms: _630  and  _633
REMARK  252  A    between atoms: _633  and  _634
REMARK                            x       y       z     vdW  Elec       q    Type
REMARK                         _______ _______ _______ _____ _____    ______ ____
ROOT
ATOM      1  O   HOH     1      23.888  86.782  -8.515  0.00  0.00    +0.000 OA
ENDROOT
TORSDOF 0
REMARK  Name = ../refined-set-2016/3fh7/3fh7_pocket.pdb
REMARK  252 active torsions:
REMARK  status: ('A' for Active; 'I' for Inactive)
REMARK    1  A    between atoms: _1  and  _3
REMARK    2  A    between atoms: _3  and  _4
REMARK    3  A    between atoms: _3  and  _6
REMARK    4  A    between atoms: _8  and  _10
REMARK    5  A    between atoms: _10  and  _11
REMARK    6  A    between atoms: _10  and  _13
REMARK    7  A    between atoms: _13  and  _14
REMARK    8  A    between atoms: _16  and  _18
REMARK    9  A    between atoms: _18  and  _19
REMARK   10  A    between atoms: _18  and  _21
REMARK   11  A    between atoms: _21  and  _22
REMARK   12  A    between atoms: _22  and  _23
REMARK   13  A    between atoms: _28  and  _30
REMARK   14  A    between atoms: _30  and  _31
REMARK   15  A    between atoms: _30  and  _33
REMARK   16  A    between atoms: _35  and  _37
REMARK   17  A    between atoms: _37  and  _38
REMARK   18  A    between atoms: _37  and  _40
REMARK   19  A    between atoms: _40  and  _41
REMARK   20  A    between atoms: _41  and  _42
REMARK   21  A    between atoms: _47  and  _49
REMARK   22  A    between atoms: _49  and  _50
REMARK   23  A    between atoms: _53  and  _55
REMARK   24  A    between atoms: _55  and  _56
REMARK   25  A    between atoms: _55  and  _58
REMARK   26  A    between atoms: _58  and  _59
REMARK   27  A    between atoms: _62  and  _64
REMARK   28  A    between atoms: _64  and  _65
REMARK   29  A    between atoms: _64  and  _67
REMARK   30  A    between atoms: _67  and  _68
REMARK   31  A    between atoms: _73  and  _75
REMARK   32  A    between atoms: _75  and  _76
REMARK   33  A    between atoms: _75  and  _78
REMARK   34  A    between atoms: _78  and  _79
REMARK   35  A    between atoms: _84  and  _85
REMARK   36  A    between atoms: _87  and  _89
REMARK   37  A    between atoms: _89  and  _90
REMARK   38  A    between atoms: _89  and  _92
REMARK   39  A    between atoms: _92  and  _93
REMARK   40  A    between atoms: _100  and  _101
REMARK   41  A    between atoms: _106  and  _108
REMARK   42  A    between atoms: _108  and  _109
REMARK   43  A    between atoms: _108  and  _111
REMARK   44  A    between atoms: _111  and  _112
REMARK   45  A    between atoms: _117  and  _118
REMARK   46  A    between atoms: _120  and  _122
REMARK   47  A    between atoms: _122  and  _123
REMARK   48  A    between atoms: _125  and  _127
REMARK   49  A    between atoms: _127  and  _128
REMARK   50  A    between atoms: _130  and  _132
REMARK   51  A    between atoms: _132  and  _133
REMARK   52  A    between atoms: _132  and  _135
REMARK   53  A    between atoms: _135  and  _136
REMARK   54  A    between atoms: _136  and  _137
REMARK   55  A    between atoms: _139  and  _141
REMARK   56  A    between atoms: _141  and  _142
REMARK   57  A    between atoms: _141  and  _144
REMARK   58  A    between atoms: _144  and  _145
REMARK   59  A    between atoms: _145  and  _146
REMARK   60  A    between atoms: _149  and  _151
REMARK   61  A    between atoms: _151  and  _152
REMARK   62  A    between atoms: _151  and  _154
REMARK   63  A    between atoms: _154  and  _155
REMARK   64  A    between atoms: _160  and  _162
REMARK   65  A    between atoms: _162  and  _163
REMARK   66  A    between atoms: _162  and  _165
REMARK   67  A    between atoms: _165  and  _166
REMARK   68  A    between atoms: _169  and  _171
REMARK   69  A    between atoms: _171  and  _172
REMARK   70  A    between atoms: _171  and  _174
REMARK   71  A    between atoms: _174  and  _175
REMARK   72  A    between atoms: _181  and  _183
REMARK   73  A    between atoms: _183  and  _184
REMARK   74  A    between atoms: _183  and  _186
REMARK   75  A    between atoms: _189  and  _191
REMARK   76  A    between atoms: _191  and  _192
REMARK   77  A    between atoms: _191  and  _194
REMARK   78  A    between atoms: _194  and  _195
REMARK   79  A    between atoms: _199  and  ZN_637
REMARK   80  A    between atoms: _200  and  _202
REMARK   81  A    between atoms: _202  and  _203
REMARK   82  A    between atoms: _202  and  _205
REMARK   83  A    between atoms: _205  and  _206
REMARK   84  A    between atoms: _206  and  _207
REMARK   85  A    between atoms: _210  and  _212
REMARK   86  A    between atoms: _212  and  _213
REMARK   87  A    between atoms: _212  and  _215
REMARK   88  A    between atoms: _215  and  _216
REMARK   89  A    between atoms: _219  and  _221
REMARK   90  A    between atoms: _221  and  _222
REMARK   91  A    between atoms: _221  and  _224
REMARK   92  A    between atoms: _224  and  _225
REMARK   93  A    between atoms: _229  and  ZN_637
REMARK   94  A    between atoms: _230  and  _232
REMARK   95  A    between atoms: _232  and  _233
REMARK   96  A    between atoms: _232  and  _235
REMARK   97  A    between atoms: _235  and  _236
REMARK   98  A    between atoms: _239  and  _241
REMARK   99  A    between atoms: _241  and  _242
REMARK  100  A    between atoms: _241  and  _244
REMARK  101  A    between atoms: _244  and  _245
REMARK  102  A    between atoms: _250  and  _252
REMARK  103  A    between atoms: _252  and  _253
REMARK  104  A    between atoms: _252  and  _255
REMARK  105  A    between atoms: _255  and  _256
REMARK  106  A    between atoms: _261  and  _263
REMARK  107  A    between atoms: _263  and  _264
REMARK  108  A    between atoms: _263  and  _266
REMARK  109  A    between atoms: _266  and  _267
REMARK  110  A    between atoms: _270  and  _272
REMARK  111  A    between atoms: _272  and  _273
REMARK  112  A    between atoms: _272  and  _275
REMARK  113  A    between atoms: _275  and  _276
REMARK  114  A    between atoms: _286  and  _288
REMARK  115  A    between atoms: _288  and  _289
REMARK  116  A    between atoms: _288  and  _291
REMARK  117  A    between atoms: _291  and  _292
REMARK  118  A    between atoms: _295  and  _297
REMARK  119  A    between atoms: _297  and  _298
REMARK  120  A    between atoms: _297  and  _300
REMARK  121  A    between atoms: _300  and  _301
REMARK  122  A    between atoms: _306  and  _308
REMARK  123  A    between atoms: _308  and  _309
REMARK  124  A    between atoms: _308  and  _311
REMARK  125  A    between atoms: _311  and  _312
REMARK  126  A    between atoms: _318  and  _320
REMARK  127  A    between atoms: _320  and  _321
REMARK  128  A    between atoms: _320  and  _323
REMARK  129  A    between atoms: _323  and  _324
REMARK  130  A    between atoms: _334  and  _336
REMARK  131  A    between atoms: _336  and  _337
REMARK  132  A    between atoms: _336  and  _339
REMARK  133  A    between atoms: _339  and  _340
REMARK  134  A    between atoms: _343  and  _345
REMARK  135  A    between atoms: _345  and  _346
REMARK  136  A    between atoms: _345  and  _348
REMARK  137  A    between atoms: _348  and  _349
REMARK  138  A    between atoms: _354  and  _356
REMARK  139  A    between atoms: _356  and  _357
REMARK  140  A    between atoms: _356  and  _359
REMARK  141  A    between atoms: _359  and  _360
REMARK  142  A    between atoms: _360  and  _361
REMARK  143  A    between atoms: _361  and  _362
REMARK  144  A    between atoms: _362  and  ZN_637
REMARK  145  A    between atoms: _364  and  _366
REMARK  146  A    between atoms: _366  and  _367
REMARK  147  A    between atoms: _366  and  _369
REMARK  148  A    between atoms: _369  and  _370
REMARK  149  A    between atoms: _373  and  _375
REMARK  150  A    between atoms: _375  and  _376
REMARK  151  A    between atoms: _375  and  _378
REMARK  152  A    between atoms: _381  and  _383
REMARK  153  A    between atoms: _383  and  _384
REMARK  154  A    between atoms: _383  and  _386
REMARK  155  A    between atoms: _386  and  _387
REMARK  156  A    between atoms: _387  and  _388
REMARK  157  A    between atoms: _391  and  _393
REMARK  158  A    between atoms: _393  and  _394
REMARK  159  A    between atoms: _393  and  _396
REMARK  160  A    between atoms: _396  and  _397
REMARK  161  A    between atoms: _404  and  _405
REMARK  162  A    between atoms: _410  and  _412
REMARK  163  A    between atoms: _412  and  _413
REMARK  164  A    between atoms: _412  and  _415
REMARK  165  A    between atoms: _415  and  _416
REMARK  166  A    between atoms: _422  and  _424
REMARK  167  A    between atoms: _424  and  _425
REMARK  168  A    between atoms: _424  and  _427
REMARK  169  A    between atoms: _427  and  _428
REMARK  170  A    between atoms: _431  and  _433
REMARK  171  A    between atoms: _433  and  _434
REMARK  172  A    between atoms: _433  and  _436
REMARK  173  A    between atoms: _436  and  _437
REMARK  174  A    between atoms: _437  and  _438
REMARK  175  A    between atoms: _438  and  _439
REMARK  176  A    between atoms: _439  and  _440
REMARK  177  A    between atoms: _444  and  _446
REMARK  178  A    between atoms: _446  and  _447
REMARK  179  A    between atoms: _446  and  _449
REMARK  180  A    between atoms: _449  and  _450
REMARK  181  A    between atoms: _453  and  _455
REMARK  182  A    between atoms: _455  and  _456
REMARK  183  A    between atoms: _455  and  _458
REMARK  184  A    between atoms: _461  and  _463
REMARK  185  A    between atoms: _463  and  _464
REMARK  186  A    between atoms: _463  and  _466
REMARK  187  A    between atoms: _469  and  _471
REMARK  188  A    between atoms: _471  and  _472
REMARK  189  A    between atoms: _471  and  _474
REMARK  190  A    between atoms: _474  and  _475
REMARK  191  A    between atoms: _478  and  _480
REMARK  192  A    between atoms: _480  and  _481
REMARK  193  A    between atoms: _480  and  _483
REMARK  194  A    between atoms: _483  and  _484
REMARK  195  A    between atoms: _487  and  _489
REMARK  196  A    between atoms: _489  and  _490
REMARK  197  A    between atoms: _489  and  _492
REMARK  198  A    between atoms: _492  and  _493
REMARK  199  A    between atoms: _496  and  _498
REMARK  200  A    between atoms: _498  and  _499
REMARK  201  A    between atoms: _498  and  _501
REMARK  202  A    between atoms: _501  and  _502
REMARK  203  A    between atoms: _506  and  _507
REMARK  204  A    between atoms: _512  and  _514
REMARK  205  A    between atoms: _514  and  _515
REMARK  206  A    between atoms: _514  and  _517
REMARK  207  A    between atoms: _517  and  _518
REMARK  208  A    between atoms: _521  and  _523
REMARK  209  A    between atoms: _523  and  _524
REMARK  210  A    between atoms: _523  and  _526
REMARK  211  A    between atoms: _529  and  _531
REMARK  212  A    between atoms: _531  and  _532
REMARK  213  A    between atoms: _535  and  _537
REMARK  214  A    between atoms: _537  and  _538
REMARK  215  A    between atoms: _537  and  _540
REMARK  216  A    between atoms: _540  and  _541
REMARK  217  A    between atoms: _546  and  _547
REMARK  218  A    between atoms: _549  and  _551
REMARK  219  A    between atoms: _551  and  _552
REMARK  220  A    between atoms: _551  and  _554
REMARK  221  A    between atoms: _554  and  _555
REMARK  222  A    between atoms: _557  and  _559
REMARK  223  A    between atoms: _559  and  _560
REMARK  224  A    between atoms: _559  and  _562
REMARK  225  A    between atoms: _562  and  _563
REMARK  226  A    between atoms: _565  and  _567
REMARK  227  A    between atoms: _567  and  _568
REMARK  228  A    between atoms: _567  and  _570
REMARK  229  A    between atoms: _574  and  _575
REMARK  230  A    between atoms: _580  and  _582
REMARK  231  A    between atoms: _582  and  _583
REMARK  232  A    between atoms: _582  and  _585
REMARK  233  A    between atoms: _585  and  _586
REMARK  234  A    between atoms: _591  and  _592
REMARK  235  A    between atoms: _594  and  _596
REMARK  236  A    between atoms: _596  and  _597
REMARK  237  A    between atoms: _596  and  _599
REMARK  238  A    between atoms: _599  and  _600
REMARK  239  A    between atoms: _600  and  _601
REMARK  240  A    between atoms: _601  and  _602
REMARK  241  A    between atoms: _611  and  _613
REMARK  242  A    between atoms: _613  and  _614
REMARK  243  A    between atoms: _613  and  _616
REMARK  244  A    between atoms: _616  and  _617
REMARK  245  A    between atoms: _617  and  _618
REMARK  246  A    between atoms: _620  and  _622
REMARK  247  A    between atoms: _622  and  _623
REMARK  248  A    between atoms: _622  and  _625
REMARK  249  A    between atoms: _628  and  _630
REMARK  250  A    between atoms: _630  and  _631
REMARK  251  A    between atoms: _630  and  _633
REMARK  252  A    between atoms: _633  and  _634
REMARK                            x       y       z     vdW  Elec       q    Type
REMARK                         _______ _______ _______ _____ _____    ______ ____
ROOT
ATOM      1  O   HOH     1      31.069  85.835   7.612  0.00  0.00    +0.000 OA
ENDROOT
TORSDOF 0
REMARK  Name = ../refined-set-2016/3fh7/3fh7_pocket.pdb
REMARK  252 active torsions:
REMARK  status: ('A' for Active; 'I' for Inactive)
REMARK    1  A    between atoms: _1  and  _3
REMARK    2  A    between atoms: _3  and  _4
REMARK    3  A    between atoms: _3  and  _6
REMARK    4  A    between atoms: _8  and  _10
REMARK    5  A    between atoms: _10  and  _11
REMARK    6  A    between atoms: _10  and  _13
REMARK    7  A    between atoms: _13  and  _14
REMARK    8  A    between atoms: _16  and  _18
REMARK    9  A    between atoms: _18  and  _19
REMARK   10  A    between atoms: _18  and  _21
REMARK   11  A    between atoms: _21  and  _22
REMARK   12  A    between atoms: _22  and  _23
REMARK   13  A    between atoms: _28  and  _30
REMARK   14  A    between atoms: _30  and  _31
REMARK   15  A    between atoms: _30  and  _33
REMARK   16  A    between atoms: _35  and  _37
REMARK   17  A    between atoms: _37  and  _38
REMARK   18  A    between atoms: _37  and  _40
REMARK   19  A    between atoms: _40  and  _41
REMARK   20  A    between atoms: _41  and  _42
REMARK   21  A    between atoms: _47  and  _49
REMARK   22  A    between atoms: _49  and  _50
REMARK   23  A    between atoms: _53  and  _55
REMARK   24  A    between atoms: _55  and  _56
REMARK   25  A    between atoms: _55  and  _58
REMARK   26  A    between atoms: _58  and  _59
REMARK   27  A    between atoms: _62  and  _64
REMARK   28  A    between atoms: _64  and  _65
REMARK   29  A    between atoms: _64  and  _67
REMARK   30  A    between atoms: _67  and  _68
REMARK   31  A    between atoms: _73  and  _75
REMARK   32  A    between atoms: _75  and  _76
REMARK   33  A    between atoms: _75  and  _78
REMARK   34  A    between atoms: _78  and  _79
REMARK   35  A    between atoms: _84  and  _85
REMARK   36  A    between atoms: _87  and  _89
REMARK   37  A    between atoms: _89  and  _90
REMARK   38  A    between atoms: _89  and  _92
REMARK   39  A    between atoms: _92  and  _93
REMARK   40  A    between atoms: _100  and  _101
REMARK   41  A    between atoms: _106  and  _108
REMARK   42  A    between atoms: _108  and  _109
REMARK   43  A    between atoms: _108  and  _111
REMARK   44  A    between atoms: _111  and  _112
REMARK   45  A    between atoms: _117  and  _118
REMARK   46  A    between atoms: _120  and  _122
REMARK   47  A    between atoms: _122  and  _123
REMARK   48  A    between atoms: _125  and  _127
REMARK   49  A    between atoms: _127  and  _128
REMARK   50  A    between atoms: _130  and  _132
REMARK   51  A    between atoms: _132  and  _133
REMARK   52  A    between atoms: _132  and  _135
REMARK   53  A    between atoms: _135  and  _136
REMARK   54  A    between atoms: _136  and  _137
REMARK   55  A    between atoms: _139  and  _141
REMARK   56  A    between atoms: _141  and  _142
REMARK   57  A    between atoms: _141  and  _144
REMARK   58  A    between atoms: _144  and  _145
REMARK   59  A    between atoms: _145  and  _146
REMARK   60  A    between atoms: _149  and  _151
REMARK   61  A    between atoms: _151  and  _152
REMARK   62  A    between atoms: _151  and  _154
REMARK   63  A    between atoms: _154  and  _155
REMARK   64  A    between atoms: _160  and  _162
REMARK   65  A    between atoms: _162  and  _163
REMARK   66  A    between atoms: _162  and  _165
REMARK   67  A    between atoms: _165  and  _166
REMARK   68  A    between atoms: _169  and  _171
REMARK   69  A    between atoms: _171  and  _172
REMARK   70  A    between atoms: _171  and  _174
REMARK   71  A    between atoms: _174  and  _175
REMARK   72  A    between atoms: _181  and  _183
REMARK   73  A    between atoms: _183  and  _184
REMARK   74  A    between atoms: _183  and  _186
REMARK   75  A    between atoms: _189  and  _191
REMARK   76  A    between atoms: _191  and  _192
REMARK   77  A    between atoms: _191  and  _194
REMARK   78  A    between atoms: _194  and  _195
REMARK   79  A    between atoms: _199  and  ZN_637
REMARK   80  A    between atoms: _200  and  _202
REMARK   81  A    between atoms: _202  and  _203
REMARK   82  A    between atoms: _202  and  _205
REMARK   83  A    between atoms: _205  and  _206
REMARK   84  A    between atoms: _206  and  _207
REMARK   85  A    between atoms: _210  and  _212
REMARK   86  A    between atoms: _212  and  _213
REMARK   87  A    between atoms: _212  and  _215
REMARK   88  A    between atoms: _215  and  _216
REMARK   89  A    between atoms: _219  and  _221
REMARK   90  A    between atoms: _221  and  _222
REMARK   91  A    between atoms: _221  and  _224
REMARK   92  A    between atoms: _224  and  _225
REMARK   93  A    between atoms: _229  and  ZN_637
REMARK   94  A    between atoms: _230  and  _232
REMARK   95  A    between atoms: _232  and  _233
REMARK   96  A    between atoms: _232  and  _235
REMARK   97  A    between atoms: _235  and  _236
REMARK   98  A    between atoms: _239  and  _241
REMARK   99  A    between atoms: _241  and  _242
REMARK  100  A    between atoms: _241  and  _244
REMARK  101  A    between atoms: _244  and  _245
REMARK  102  A    between atoms: _250  and  _252
REMARK  103  A    between atoms: _252  and  _253
REMARK  104  A    between atoms: _252  and  _255
REMARK  105  A    between atoms: _255  and  _256
REMARK  106  A    between atoms: _261  and  _263
REMARK  107  A    between atoms: _263  and  _264
REMARK  108  A    between atoms: _263  and  _266
REMARK  109  A    between atoms: _266  and  _267
REMARK  110  A    between atoms: _270  and  _272
REMARK  111  A    between atoms: _272  and  _273
REMARK  112  A    between atoms: _272  and  _275
REMARK  113  A    between atoms: _275  and  _276
REMARK  114  A    between atoms: _286  and  _288
REMARK  115  A    between atoms: _288  and  _289
REMARK  116  A    between atoms: _288  and  _291
REMARK  117  A    between atoms: _291  and  _292
REMARK  118  A    between atoms: _295  and  _297
REMARK  119  A    between atoms: _297  and  _298
REMARK  120  A    between atoms: _297  and  _300
REMARK  121  A    between atoms: _300  and  _301
REMARK  122  A    between atoms: _306  and  _308
REMARK  123  A    between atoms: _308  and  _309
REMARK  124  A    between atoms: _308  and  _311
REMARK  125  A    between atoms: _311  and  _312
REMARK  126  A    between atoms: _318  and  _320
REMARK  127  A    between atoms: _320  and  _321
REMARK  128  A    between atoms: _320  and  _323
REMARK  129  A    between atoms: _323  and  _324
REMARK  130  A    between atoms: _334  and  _336
REMARK  131  A    between atoms: _336  and  _337
REMARK  132  A    between atoms: _336  and  _339
REMARK  133  A    between atoms: _339  and  _340
REMARK  134  A    between atoms: _343  and  _345
REMARK  135  A    between atoms: _345  and  _346
REMARK  136  A    between atoms: _345  and  _348
REMARK  137  A    between atoms: _348  and  _349
REMARK  138  A    between atoms: _354  and  _356
REMARK  139  A    between atoms: _356  and  _357
REMARK  140  A    between atoms: _356  and  _359
REMARK  141  A    between atoms: _359  and  _360
REMARK  142  A    between atoms: _360  and  _361
REMARK  143  A    between atoms: _361  and  _362
REMARK  144  A    between atoms: _362  and  ZN_637
REMARK  145  A    between atoms: _364  and  _366
REMARK  146  A    between atoms: _366  and  _367
REMARK  147  A    between atoms: _366  and  _369
REMARK  148  A    between atoms: _369  and  _370
REMARK  149  A    between atoms: _373  and  _375
REMARK  150  A    between atoms: _375  and  _376
REMARK  151  A    between atoms: _375  and  _378
REMARK  152  A    between atoms: _381  and  _383
REMARK  153  A    between atoms: _383  and  _384
REMARK  154  A    between atoms: _383  and  _386
REMARK  155  A    between atoms: _386  and  _387
REMARK  156  A    between atoms: _387  and  _388
REMARK  157  A    between atoms: _391  and  _393
REMARK  158  A    between atoms: _393  and  _394
REMARK  159  A    between atoms: _393  and  _396
REMARK  160  A    between atoms: _396  and  _397
REMARK  161  A    between atoms: _404  and  _405
REMARK  162  A    between atoms: _410  and  _412
REMARK  163  A    between atoms: _412  and  _413
REMARK  164  A    between atoms: _412  and  _415
REMARK  165  A    between atoms: _415  and  _416
REMARK  166  A    between atoms: _422  and  _424
REMARK  167  A    between atoms: _424  and  _425
REMARK  168  A    between atoms: _424  and  _427
REMARK  169  A    between atoms: _427  and  _428
REMARK  170  A    between atoms: _431  and  _433
REMARK  171  A    between atoms: _433  and  _434
REMARK  172  A    between atoms: _433  and  _436
REMARK  173  A    between atoms: _436  and  _437
REMARK  174  A    between atoms: _437  and  _438
REMARK  175  A    between atoms: _438  and  _439
REMARK  176  A    between atoms: _439  and  _440
REMARK  177  A    between atoms: _444  and  _446
REMARK  178  A    between atoms: _446  and  _447
REMARK  179  A    between atoms: _446  and  _449
REMARK  180  A    between atoms: _449  and  _450
REMARK  181  A    between atoms: _453  and  _455
REMARK  182  A    between atoms: _455  and  _456
REMARK  183  A    between atoms: _455  and  _458
REMARK  184  A    between atoms: _461  and  _463
REMARK  185  A    between atoms: _463  and  _464
REMARK  186  A    between atoms: _463  and  _466
REMARK  187  A    between atoms: _469  and  _471
REMARK  188  A    between atoms: _471  and  _472
REMARK  189  A    between atoms: _471  and  _474
REMARK  190  A    between atoms: _474  and  _475
REMARK  191  A    between atoms: _478  and  _480
REMARK  192  A    between atoms: _480  and  _481
REMARK  193  A    between atoms: _480  and  _483
REMARK  194  A    between atoms: _483  and  _484
REMARK  195  A    between atoms: _487  and  _489
REMARK  196  A    between atoms: _489  and  _490
REMARK  197  A    between atoms: _489  and  _492
REMARK  198  A    between atoms: _492  and  _493
REMARK  199  A    between atoms: _496  and  _498
REMARK  200  A    between atoms: _498  and  _499
REMARK  201  A    between atoms: _498  and  _501
REMARK  202  A    between atoms: _501  and  _502
REMARK  203  A    between atoms: _506  and  _507
REMARK  204  A    between atoms: _512  and  _514
REMARK  205  A    between atoms: _514  and  _515
REMARK  206  A    between atoms: _514  and  _517
REMARK  207  A    between atoms: _517  and  _518
REMARK  208  A    between atoms: _521  and  _523
REMARK  209  A    between atoms: _523  and  _524
REMARK  210  A    between atoms: _523  and  _526
REMARK  211  A    between atoms: _529  and  _531
REMARK  212  A    between atoms: _531  and  _532
REMARK  213  A    between atoms: _535  and  _537
REMARK  214  A    between atoms: _537  and  _538
REMARK  215  A    between atoms: _537  and  _540
REMARK  216  A    between atoms: _540  and  _541
REMARK  217  A    between atoms: _546  and  _547
REMARK  218  A    between atoms: _549  and  _551
REMARK  219  A    between atoms: _551  and  _552
REMARK  220  A    between atoms: _551  and  _554
REMARK  221  A    between atoms: _554  and  _555
REMARK  222  A    between atoms: _557  and  _559
REMARK  223  A    between atoms: _559  and  _560
REMARK  224  A    between atoms: _559  and  _562
REMARK  225  A    between atoms: _562  and  _563
REMARK  226  A    between atoms: _565  and  _567
REMARK  227  A    between atoms: _567  and  _568
REMARK  228  A    between atoms: _567  and  _570
REMARK  229  A    between atoms: _574  and  _575
REMARK  230  A    between atoms: _580  and  _582
REMARK  231  A    between atoms: _582  and  _583
REMARK  232  A    between atoms: _582  and  _585
REMARK  233  A    between atoms: _585  and  _586
REMARK  234  A    between atoms: _591  and  _592
REMARK  235  A    between atoms: _594  and  _596
REMARK  236  A    between atoms: _596  and  _597
REMARK  237  A    between atoms: _596  and  _599
REMARK  238  A    between atoms: _599  and  _600
REMARK  239  A    between atoms: _600  and  _601
REMARK  240  A    between atoms: _601  and  _602
REMARK  241  A    between atoms: _611  and  _613
REMARK  242  A    between atoms: _613  and  _614
REMARK  243  A    between atoms: _613  and  _616
REMARK  244  A    between atoms: _616  and  _617
REMARK  245  A    between atoms: _617  and  _618
REMARK  246  A    between atoms: _620  and  _622
REMARK  247  A    between atoms: _622  and  _623
REMARK  248  A    between atoms: _622  and  _625
REMARK  249  A    between atoms: _628  and  _630
REMARK  250  A    between atoms: _630  and  _631
REMARK  251  A    between atoms: _630  and  _633
REMARK  252  A    between atoms: _633  and  _634
REMARK                            x       y       z     vdW  Elec       q    Type
REMARK                         _______ _______ _______ _____ _____    ______ ____
ROOT
ATOM      1  O   HOH     1      22.867  81.250  -3.582  0.00  0.00    +0.000 OA
ENDROOT
TORSDOF 0
