REMARK  Name = ../refined-set-2016/4j45/4j45_pocket.pdb
REMARK  102 active torsions:
REMARK  status: ('A' for Active; 'I' for Inactive)
REMARK    1  A    between atoms: _1  and  _3
REMARK    2  A    between atoms: _3  and  _4
REMARK    3  A    between atoms: _3  and  _6
REMARK    4  A    between atoms: _6  and  _7
REMARK    5  A    between atoms: _10  and  _12
REMARK    6  A    between atoms: _12  and  _13
REMARK    7  A    between atoms: _12  and  _15
REMARK    8  A    between atoms: _15  and  _16
REMARK    9  A    between atoms: _19  and  _21
REMARK   10  A    between atoms: _21  and  _22
REMARK   11  A    between atoms: _21  and  _24
REMARK   12  A    between atoms: _24  and  _25
REMARK   13  A    between atoms: _28  and  _30
REMARK   14  A    between atoms: _30  and  _31
REMARK   15  A    between atoms: _30  and  _33
REMARK   16  A    between atoms: _33  and  _34
REMARK   17  A    between atoms: _34  and  _35
REMARK   18  A    between atoms: _40  and  _42
REMARK   19  A    between atoms: _42  and  _43
REMARK   20  A    between atoms: _42  and  _45
REMARK   21  A    between atoms: _48  and  _50
REMARK   22  A    between atoms: _50  and  _51
REMARK   23  A    between atoms: _50  and  _53
REMARK   24  A    between atoms: _53  and  _54
REMARK   25  A    between atoms: _54  and  _55
REMARK   26  A    between atoms: _60  and  _62
REMARK   27  A    between atoms: _62  and  _63
REMARK   28  A    between atoms: _65  and  _67
REMARK   29  A    between atoms: _67  and  _68
REMARK   30  A    between atoms: _70  and  _72
REMARK   31  A    between atoms: _72  and  _73
REMARK   32  A    between atoms: _72  and  _75
REMARK   33  A    between atoms: _75  and  _76
REMARK   34  A    between atoms: _76  and  _77
REMARK   35  A    between atoms: _77  and  _78
REMARK   36  A    between atoms: _78  and  _79
REMARK   37  A    between atoms: _83  and  _85
REMARK   38  A    between atoms: _85  and  _86
REMARK   39  A    between atoms: _85  and  _88
REMARK   40  A    between atoms: _88  and  _89
REMARK   41  A    between atoms: _92  and  _94
REMARK   42  A    between atoms: _94  and  _95
REMARK   43  A    between atoms: _94  and  _97
REMARK   44  A    between atoms: _97  and  _98
REMARK   45  A    between atoms: _98  and  _99
REMARK   46  A    between atoms: _99  and  _100
REMARK   47  A    between atoms: _100  and  _101
REMARK   48  A    between atoms: _105  and  _107
REMARK   49  A    between atoms: _107  and  _108
REMARK   50  A    between atoms: _107  and  _110
REMARK   51  A    between atoms: _110  and  _111
REMARK   52  A    between atoms: _116  and  _118
REMARK   53  A    between atoms: _118  and  _119
REMARK   54  A    between atoms: _118  and  _121
REMARK   55  A    between atoms: _121  and  _122
REMARK   56  A    between atoms: _132  and  _134
REMARK   57  A    between atoms: _134  and  _135
REMARK   58  A    between atoms: _134  and  _137
REMARK   59  A    between atoms: _137  and  _138
REMARK   60  A    between atoms: _138  and  _139
REMARK   61  A    between atoms: _143  and  _144
REMARK   62  A    between atoms: _149  and  _151
REMARK   63  A    between atoms: _151  and  _152
REMARK   64  A    between atoms: _154  and  _156
REMARK   65  A    between atoms: _156  and  _157
REMARK   66  A    between atoms: _156  and  _159
REMARK   67  A    between atoms: _159  and  _160
REMARK   68  A    between atoms: _163  and  _165
REMARK   69  A    between atoms: _165  and  _166
REMARK   70  A    between atoms: _165  and  _168
REMARK   71  A    between atoms: _168  and  _169
REMARK   72  A    between atoms: _169  and  _170
REMARK   73  A    between atoms: _170  and  _171
REMARK   74  A    between atoms: _180  and  _182
REMARK   75  A    between atoms: _182  and  _183
REMARK   76  A    between atoms: _186  and  _188
REMARK   77  A    between atoms: _188  and  _189
REMARK   78  A    between atoms: _188  and  _191
REMARK   79  A    between atoms: _191  and  _192
REMARK   80  A    between atoms: _194  and  _196
REMARK   81  A    between atoms: _196  and  _197
REMARK   82  A    between atoms: _196  and  _199
REMARK   83  A    between atoms: _199  and  _200
REMARK   84  A    between atoms: _200  and  _201
REMARK   85  A    between atoms: _204  and  _206
REMARK   86  A    between atoms: _206  and  _207
REMARK   87  A    between atoms: _206  and  _209
REMARK   88  A    between atoms: _209  and  _210
REMARK   89  A    between atoms: _215  and  _217
REMARK   90  A    between atoms: _217  and  _218
REMARK   91  A    between atoms: _217  and  _220
REMARK   92  A    between atoms: _220  and  _221
REMARK   93  A    between atoms: _221  and  _222
REMARK   94  A    between atoms: _222  and  _223
REMARK   95  A    between atoms: _232  and  _234
REMARK   96  A    between atoms: _234  and  _235
REMARK   97  A    between atoms: _234  and  _237
REMARK   98  A    between atoms: _237  and  _238
REMARK   99  A    between atoms: _243  and  _245
REMARK  100  A    between atoms: _245  and  _246
REMARK  101  A    between atoms: _245  and  _248
REMARK  102  A    between atoms: _248  and  _249
REMARK                            x       y       z     vdW  Elec       q    Type
REMARK                         _______ _______ _______ _____ _____    ______ ____
ROOT
ATOM      1  CA  LEU A   1      16.972  44.171  11.464  0.00  0.00    +0.133 C 
ENDROOT
BRANCH   1   2
ATOM      2  N   LEU A   1      18.077  45.154  11.456  0.00  0.00    -0.239 NA
ATOM      3  H   LEU A   1      19.049  44.856  11.676  0.00  0.00    +0.142 HD
ENDBRANCH   1   2
BRANCH   1   4
ATOM      4  C   LEU A   1      16.116  44.451  12.674  0.00  0.00    +0.224 C 
ATOM      5  O   LEU A   1      16.596  44.832  13.731  0.00  0.00    -0.287 OA
ENDBRANCH   1   4
BRANCH   1   6
ATOM      6  CB  LEU A   1      17.444  42.722  11.479  0.00  0.00    +0.025 C 
BRANCH   6   7
ATOM      7  CG  LEU A   1      17.682  42.164  10.069  0.00  0.00    +0.002 C 
ATOM      8  CD2 LEU A   1      17.911  40.696  10.022  0.00  0.00    +0.000 C 
ATOM      9  CD1 LEU A   1      18.912  42.756   9.446  0.00  0.00    +0.000 C 
ENDBRANCH   6   7
ENDBRANCH   1   6
TORSDOF 4
REMARK  Name = ../refined-set-2016/4j45/4j45_pocket.pdb
REMARK  102 active torsions:
REMARK  status: ('A' for Active; 'I' for Inactive)
REMARK    1  A    between atoms: _1  and  _3
REMARK    2  A    between atoms: _3  and  _4
REMARK    3  A    between atoms: _3  and  _6
REMARK    4  A    between atoms: _6  and  _7
REMARK    5  A    between atoms: _10  and  _12
REMARK    6  A    between atoms: _12  and  _13
REMARK    7  A    between atoms: _12  and  _15
REMARK    8  A    between atoms: _15  and  _16
REMARK    9  A    between atoms: _19  and  _21
REMARK   10  A    between atoms: _21  and  _22
REMARK   11  A    between atoms: _21  and  _24
REMARK   12  A    between atoms: _24  and  _25
REMARK   13  A    between atoms: _28  and  _30
REMARK   14  A    between atoms: _30  and  _31
REMARK   15  A    between atoms: _30  and  _33
REMARK   16  A    between atoms: _33  and  _34
REMARK   17  A    between atoms: _34  and  _35
REMARK   18  A    between atoms: _40  and  _42
REMARK   19  A    between atoms: _42  and  _43
REMARK   20  A    between atoms: _42  and  _45
REMARK   21  A    between atoms: _48  and  _50
REMARK   22  A    between atoms: _50  and  _51
REMARK   23  A    between atoms: _50  and  _53
REMARK   24  A    between atoms: _53  and  _54
REMARK   25  A    between atoms: _54  and  _55
REMARK   26  A    between atoms: _60  and  _62
REMARK   27  A    between atoms: _62  and  _63
REMARK   28  A    between atoms: _65  and  _67
REMARK   29  A    between atoms: _67  and  _68
REMARK   30  A    between atoms: _70  and  _72
REMARK   31  A    between atoms: _72  and  _73
REMARK   32  A    between atoms: _72  and  _75
REMARK   33  A    between atoms: _75  and  _76
REMARK   34  A    between atoms: _76  and  _77
REMARK   35  A    between atoms: _77  and  _78
REMARK   36  A    between atoms: _78  and  _79
REMARK   37  A    between atoms: _83  and  _85
REMARK   38  A    between atoms: _85  and  _86
REMARK   39  A    between atoms: _85  and  _88
REMARK   40  A    between atoms: _88  and  _89
REMARK   41  A    between atoms: _92  and  _94
REMARK   42  A    between atoms: _94  and  _95
REMARK   43  A    between atoms: _94  and  _97
REMARK   44  A    between atoms: _97  and  _98
REMARK   45  A    between atoms: _98  and  _99
REMARK   46  A    between atoms: _99  and  _100
REMARK   47  A    between atoms: _100  and  _101
REMARK   48  A    between atoms: _105  and  _107
REMARK   49  A    between atoms: _107  and  _108
REMARK   50  A    between atoms: _107  and  _110
REMARK   51  A    between atoms: _110  and  _111
REMARK   52  A    between atoms: _116  and  _118
REMARK   53  A    between atoms: _118  and  _119
REMARK   54  A    between atoms: _118  and  _121
REMARK   55  A    between atoms: _121  and  _122
REMARK   56  A    between atoms: _132  and  _134
REMARK   57  A    between atoms: _134  and  _135
REMARK   58  A    between atoms: _134  and  _137
REMARK   59  A    between atoms: _137  and  _138
REMARK   60  A    between atoms: _138  and  _139
REMARK   61  A    between atoms: _143  and  _144
REMARK   62  A    between atoms: _149  and  _151
REMARK   63  A    between atoms: _151  and  _152
REMARK   64  A    between atoms: _154  and  _156
REMARK   65  A    between atoms: _156  and  _157
REMARK   66  A    between atoms: _156  and  _159
REMARK   67  A    between atoms: _159  and  _160
REMARK   68  A    between atoms: _163  and  _165
REMARK   69  A    between atoms: _165  and  _166
REMARK   70  A    between atoms: _165  and  _168
REMARK   71  A    between atoms: _168  and  _169
REMARK   72  A    between atoms: _169  and  _170
REMARK   73  A    between atoms: _170  and  _171
REMARK   74  A    between atoms: _180  and  _182
REMARK   75  A    between atoms: _182  and  _183
REMARK   76  A    between atoms: _186  and  _188
REMARK   77  A    between atoms: _188  and  _189
REMARK   78  A    between atoms: _188  and  _191
REMARK   79  A    between atoms: _191  and  _192
REMARK   80  A    between atoms: _194  and  _196
REMARK   81  A    between atoms: _196  and  _197
REMARK   82  A    between atoms: _196  and  _199
REMARK   83  A    between atoms: _199  and  _200
REMARK   84  A    between atoms: _200  and  _201
REMARK   85  A    between atoms: _204  and  _206
REMARK   86  A    between atoms: _206  and  _207
REMARK   87  A    between atoms: _206  and  _209
REMARK   88  A    between atoms: _209  and  _210
REMARK   89  A    between atoms: _215  and  _217
REMARK   90  A    between atoms: _217  and  _218
REMARK   91  A    between atoms: _217  and  _220
REMARK   92  A    between atoms: _220  and  _221
REMARK   93  A    between atoms: _221  and  _222
REMARK   94  A    between atoms: _222  and  _223
REMARK   95  A    between atoms: _232  and  _234
REMARK   96  A    between atoms: _234  and  _235
REMARK   97  A    between atoms: _234  and  _237
REMARK   98  A    between atoms: _237  and  _238
REMARK   99  A    between atoms: _243  and  _245
REMARK  100  A    between atoms: _245  and  _246
REMARK  101  A    between atoms: _245  and  _248
REMARK  102  A    between atoms: _248  and  _249
REMARK                            x       y       z     vdW  Elec       q    Type
REMARK                         _______ _______ _______ _____ _____    ______ ____
ROOT
ATOM      1  CA  THR A   1      22.797  37.804  23.367  0.00  0.00    +0.160 C 
ENDROOT
BRANCH   1   2
ATOM      2  N   THR A   1      21.817  38.296  22.366  0.00  0.00    -0.237 NA
ATOM      3  H   THR A   1      22.135  38.511  21.400  0.00  0.00    +0.142 HD
ENDBRANCH   1   2
BRANCH   1   4
ATOM      4  C   THR A   1      23.326  38.939  24.257  0.00  0.00    +0.227 C 
ATOM      5  O   THR A   1      24.059  38.668  25.209  0.00  0.00    -0.287 OA
ENDBRANCH   1   4
BRANCH   1   6
ATOM      6  CB  THR A   1      24.007  37.191  22.684  0.00  0.00    +0.134 C 
ATOM      7  CG2 THR A   1      23.597  36.021  21.796  0.00  0.00    +0.034 C 
BRANCH   6   8
ATOM      8  OG1 THR A   1      24.708  38.216  21.937  0.00  0.00    -0.383 OA
ATOM      9  HG1 THR A   1      24.101  38.599  21.255  0.00  0.00    +0.210 HD
ENDBRANCH   6   8
ENDBRANCH   1   6
TORSDOF 4
REMARK  Name = ../refined-set-2016/4j45/4j45_pocket.pdb
REMARK  102 active torsions:
REMARK  status: ('A' for Active; 'I' for Inactive)
REMARK    1  A    between atoms: _1  and  _3
REMARK    2  A    between atoms: _3  and  _4
REMARK    3  A    between atoms: _3  and  _6
REMARK    4  A    between atoms: _6  and  _7
REMARK    5  A    between atoms: _10  and  _12
REMARK    6  A    between atoms: _12  and  _13
REMARK    7  A    between atoms: _12  and  _15
REMARK    8  A    between atoms: _15  and  _16
REMARK    9  A    between atoms: _19  and  _21
REMARK   10  A    between atoms: _21  and  _22
REMARK   11  A    between atoms: _21  and  _24
REMARK   12  A    between atoms: _24  and  _25
REMARK   13  A    between atoms: _28  and  _30
REMARK   14  A    between atoms: _30  and  _31
REMARK   15  A    between atoms: _30  and  _33
REMARK   16  A    between atoms: _33  and  _34
REMARK   17  A    between atoms: _34  and  _35
REMARK   18  A    between atoms: _40  and  _42
REMARK   19  A    between atoms: _42  and  _43
REMARK   20  A    between atoms: _42  and  _45
REMARK   21  A    between atoms: _48  and  _50
REMARK   22  A    between atoms: _50  and  _51
REMARK   23  A    between atoms: _50  and  _53
REMARK   24  A    between atoms: _53  and  _54
REMARK   25  A    between atoms: _54  and  _55
REMARK   26  A    between atoms: _60  and  _62
REMARK   27  A    between atoms: _62  and  _63
REMARK   28  A    between atoms: _65  and  _67
REMARK   29  A    between atoms: _67  and  _68
REMARK   30  A    between atoms: _70  and  _72
REMARK   31  A    between atoms: _72  and  _73
REMARK   32  A    between atoms: _72  and  _75
REMARK   33  A    between atoms: _75  and  _76
REMARK   34  A    between atoms: _76  and  _77
REMARK   35  A    between atoms: _77  and  _78
REMARK   36  A    between atoms: _78  and  _79
REMARK   37  A    between atoms: _83  and  _85
REMARK   38  A    between atoms: _85  and  _86
REMARK   39  A    between atoms: _85  and  _88
REMARK   40  A    between atoms: _88  and  _89
REMARK   41  A    between atoms: _92  and  _94
REMARK   42  A    between atoms: _94  and  _95
REMARK   43  A    between atoms: _94  and  _97
REMARK   44  A    between atoms: _97  and  _98
REMARK   45  A    between atoms: _98  and  _99
REMARK   46  A    between atoms: _99  and  _100
REMARK   47  A    between atoms: _100  and  _101
REMARK   48  A    between atoms: _105  and  _107
REMARK   49  A    between atoms: _107  and  _108
REMARK   50  A    between atoms: _107  and  _110
REMARK   51  A    between atoms: _110  and  _111
REMARK   52  A    between atoms: _116  and  _118
REMARK   53  A    between atoms: _118  and  _119
REMARK   54  A    between atoms: _118  and  _121
REMARK   55  A    between atoms: _121  and  _122
REMARK   56  A    between atoms: _132  and  _134
REMARK   57  A    between atoms: _134  and  _135
REMARK   58  A    between atoms: _134  and  _137
REMARK   59  A    between atoms: _137  and  _138
REMARK   60  A    between atoms: _138  and  _139
REMARK   61  A    between atoms: _143  and  _144
REMARK   62  A    between atoms: _149  and  _151
REMARK   63  A    between atoms: _151  and  _152
REMARK   64  A    between atoms: _154  and  _156
REMARK   65  A    between atoms: _156  and  _157
REMARK   66  A    between atoms: _156  and  _159
REMARK   67  A    between atoms: _159  and  _160
REMARK   68  A    between atoms: _163  and  _165
REMARK   69  A    between atoms: _165  and  _166
REMARK   70  A    between atoms: _165  and  _168
REMARK   71  A    between atoms: _168  and  _169
REMARK   72  A    between atoms: _169  and  _170
REMARK   73  A    between atoms: _170  and  _171
REMARK   74  A    between atoms: _180  and  _182
REMARK   75  A    between atoms: _182  and  _183
REMARK   76  A    between atoms: _186  and  _188
REMARK   77  A    between atoms: _188  and  _189
REMARK   78  A    between atoms: _188  and  _191
REMARK   79  A    between atoms: _191  and  _192
REMARK   80  A    between atoms: _194  and  _196
REMARK   81  A    between atoms: _196  and  _197
REMARK   82  A    between atoms: _196  and  _199
REMARK   83  A    between atoms: _199  and  _200
REMARK   84  A    between atoms: _200  and  _201
REMARK   85  A    between atoms: _204  and  _206
REMARK   86  A    between atoms: _206  and  _207
REMARK   87  A    between atoms: _206  and  _209
REMARK   88  A    between atoms: _209  and  _210
REMARK   89  A    between atoms: _215  and  _217
REMARK   90  A    between atoms: _217  and  _218
REMARK   91  A    between atoms: _217  and  _220
REMARK   92  A    between atoms: _220  and  _221
REMARK   93  A    between atoms: _221  and  _222
REMARK   94  A    between atoms: _222  and  _223
REMARK   95  A    between atoms: _232  and  _234
REMARK   96  A    between atoms: _234  and  _235
REMARK   97  A    between atoms: _234  and  _237
REMARK   98  A    between atoms: _237  and  _238
REMARK   99  A    between atoms: _243  and  _245
REMARK  100  A    between atoms: _245  and  _246
REMARK  101  A    between atoms: _245  and  _248
REMARK  102  A    between atoms: _248  and  _249
REMARK                            x       y       z     vdW  Elec       q    Type
REMARK                         _______ _______ _______ _____ _____    ______ ____
ROOT
ATOM      1  C   GLN A   2      23.634  38.549  18.553  0.00  0.00    +0.241 C 
ATOM      2  O   GLN A   2      23.252  38.876  19.667  0.00  0.00    -0.273 OA
ATOM      3  N   VAL A   3      22.990  37.699  17.758  0.00  0.00    -0.297 N 
ATOM      4  H   VAL A   3      23.342  37.536  16.793  0.00  0.00    +0.150 HD
ENDROOT
BRANCH   3   5
ATOM      5  CA  VAL A   3      21.771  36.974  18.225  0.00  0.00    +0.149 C 
BRANCH   5   6
ATOM      6  C   VAL A   3      22.077  35.491  18.212  0.00  0.00    +0.241 C 
ATOM      7  N   GLN A   4      21.173  34.735  18.872  0.00  0.00    -0.298 N 
ATOM      8  H   GLN A   4      20.356  35.193  19.324  0.00  0.00    +0.150 HD
ATOM      9  O   VAL A   3      23.050  34.999  17.595  0.00  0.00    -0.273 OA
BRANCH   7  10
ATOM     10  CA  GLN A   4      21.322  33.300  18.961  0.00  0.00    +0.137 C 
BRANCH  10  11
ATOM     11  C   GLN A   4      19.963  32.620  18.806  0.00  0.00    +0.227 C 
ATOM     12  O   GLN A   4      18.951  33.190  19.208  0.00  0.00    -0.286 OA
ENDBRANCH  10  11
BRANCH  10  13
ATOM     13  CB  GLN A   4      21.879  32.944  20.343  0.00  0.00    +0.037 C 
BRANCH  13  14
ATOM     14  CG  GLN A   4      22.185  31.443  20.586  0.00  0.00    +0.087 C 
BRANCH  14  15
ATOM     15  CD  GLN A   4      23.170  31.217  21.710  0.00  0.00    +0.219 C 
ATOM     16  OE1 GLN A   4      23.458  32.132  22.474  0.00  0.00    -0.275 OA
ATOM     17  NE2 GLN A   4      23.783  30.048  21.752  0.00  0.00    -0.329 N 
ATOM     18 HE21 GLN A   4      24.537  29.881  22.449  0.00  0.00    +0.145 HD
ATOM     19 HE22 GLN A   4      23.512  29.295  21.088  0.00  0.00    +0.145 HD
ENDBRANCH  14  15
ENDBRANCH  13  14
ENDBRANCH  10  13
ENDBRANCH   7  10
ENDBRANCH   5   6
BRANCH   5  20
ATOM     20  CB  VAL A   3      20.584  37.278  17.326  0.00  0.00    +0.027 C 
ATOM     21  CG2 VAL A   3      20.220  38.757  17.375  0.00  0.00    +0.002 C 
ATOM     22  CG1 VAL A   3      20.822  36.783  15.891  0.00  0.00    +0.002 C 
ENDBRANCH   5  20
ENDBRANCH   3   5
BRANCH   1  23
ATOM     23  CA  GLN A   2      24.927  39.115  17.969  0.00  0.00    +0.149 C 
BRANCH  23  25
ATOM     24  C   ASP A   1      24.312  41.282  16.972  0.00  0.00    +0.239 C 
ATOM     25  N   GLN A   2      24.874  40.574  17.963  0.00  0.00    -0.297 N 
ATOM     26  H   GLN A   2      25.292  41.088  18.765  0.00  0.00    +0.150 HD
ATOM     27  O   ASP A   1      23.708  40.752  16.015  0.00  0.00    -0.274 OA
BRANCH  24  28
ATOM     28  CA  ASP A   1      24.459  42.814  17.043  0.00  0.00    +0.156 C 
BRANCH  28  29
ATOM     29  N   ASP A   1      25.713  43.166  17.740  0.00  0.00    -0.238 NA
ATOM     30  H   ASP A   1      26.624  43.048  17.252  0.00  0.00    +0.142 HD
ENDBRANCH  28  29
BRANCH  28  31
ATOM     31  CB  ASP A   1      24.358  43.449  15.651  0.00  0.00    +0.140 C 
BRANCH  31  32
ATOM     32  CG  ASP A   1      25.421  42.951  14.673  0.00  0.00    +0.367 C 
ATOM     33  OD2 ASP A   1      26.364  42.197  15.083  0.00  0.00    -0.246 OA
ATOM     34  OD1 ASP A   1      25.275  43.184  13.444  0.00  0.00    -0.246 OA
ENDBRANCH  31  32
ENDBRANCH  28  31
ENDBRANCH  24  28
ENDBRANCH  23  25
BRANCH  23  35
ATOM     35  CB  GLN A   2      26.112  38.582  18.773  0.00  0.00    +0.039 C 
BRANCH  35  36
ATOM     36  CG  GLN A   2      26.192  37.041  18.793  0.00  0.00    +0.087 C 
BRANCH  36  37
ATOM     37  CD  GLN A   2      27.417  36.597  19.549  0.00  0.00    +0.219 C 
ATOM     38  NE2 GLN A   2      27.374  36.723  20.857  0.00  0.00    -0.329 N 
ATOM     39 HE21 GLN A   2      28.181  36.415  21.436  0.00  0.00    +0.145 HD
ATOM     40 HE22 GLN A   2      26.533  37.131  21.313  0.00  0.00    +0.145 HD
ATOM     41  OE1 GLN A   2      28.371  36.128  18.955  0.00  0.00    -0.275 OA
ENDBRANCH  36  37
ENDBRANCH  35  36
ENDBRANCH  23  35
ENDBRANCH   1  23
TORSDOF 17
REMARK  Name = ../refined-set-2016/4j45/4j45_pocket.pdb
REMARK  102 active torsions:
REMARK  status: ('A' for Active; 'I' for Inactive)
REMARK    1  A    between atoms: _1  and  _3
REMARK    2  A    between atoms: _3  and  _4
REMARK    3  A    between atoms: _3  and  _6
REMARK    4  A    between atoms: _6  and  _7
REMARK    5  A    between atoms: _10  and  _12
REMARK    6  A    between atoms: _12  and  _13
REMARK    7  A    between atoms: _12  and  _15
REMARK    8  A    between atoms: _15  and  _16
REMARK    9  A    between atoms: _19  and  _21
REMARK   10  A    between atoms: _21  and  _22
REMARK   11  A    between atoms: _21  and  _24
REMARK   12  A    between atoms: _24  and  _25
REMARK   13  A    between atoms: _28  and  _30
REMARK   14  A    between atoms: _30  and  _31
REMARK   15  A    between atoms: _30  and  _33
REMARK   16  A    between atoms: _33  and  _34
REMARK   17  A    between atoms: _34  and  _35
REMARK   18  A    between atoms: _40  and  _42
REMARK   19  A    between atoms: _42  and  _43
REMARK   20  A    between atoms: _42  and  _45
REMARK   21  A    between atoms: _48  and  _50
REMARK   22  A    between atoms: _50  and  _51
REMARK   23  A    between atoms: _50  and  _53
REMARK   24  A    between atoms: _53  and  _54
REMARK   25  A    between atoms: _54  and  _55
REMARK   26  A    between atoms: _60  and  _62
REMARK   27  A    between atoms: _62  and  _63
REMARK   28  A    between atoms: _65  and  _67
REMARK   29  A    between atoms: _67  and  _68
REMARK   30  A    between atoms: _70  and  _72
REMARK   31  A    between atoms: _72  and  _73
REMARK   32  A    between atoms: _72  and  _75
REMARK   33  A    between atoms: _75  and  _76
REMARK   34  A    between atoms: _76  and  _77
REMARK   35  A    between atoms: _77  and  _78
REMARK   36  A    between atoms: _78  and  _79
REMARK   37  A    between atoms: _83  and  _85
REMARK   38  A    between atoms: _85  and  _86
REMARK   39  A    between atoms: _85  and  _88
REMARK   40  A    between atoms: _88  and  _89
REMARK   41  A    between atoms: _92  and  _94
REMARK   42  A    between atoms: _94  and  _95
REMARK   43  A    between atoms: _94  and  _97
REMARK   44  A    between atoms: _97  and  _98
REMARK   45  A    between atoms: _98  and  _99
REMARK   46  A    between atoms: _99  and  _100
REMARK   47  A    between atoms: _100  and  _101
REMARK   48  A    between atoms: _105  and  _107
REMARK   49  A    between atoms: _107  and  _108
REMARK   50  A    between atoms: _107  and  _110
REMARK   51  A    between atoms: _110  and  _111
REMARK   52  A    between atoms: _116  and  _118
REMARK   53  A    between atoms: _118  and  _119
REMARK   54  A    between atoms: _118  and  _121
REMARK   55  A    between atoms: _121  and  _122
REMARK   56  A    between atoms: _132  and  _134
REMARK   57  A    between atoms: _134  and  _135
REMARK   58  A    between atoms: _134  and  _137
REMARK   59  A    between atoms: _137  and  _138
REMARK   60  A    between atoms: _138  and  _139
REMARK   61  A    between atoms: _143  and  _144
REMARK   62  A    between atoms: _149  and  _151
REMARK   63  A    between atoms: _151  and  _152
REMARK   64  A    between atoms: _154  and  _156
REMARK   65  A    between atoms: _156  and  _157
REMARK   66  A    between atoms: _156  and  _159
REMARK   67  A    between atoms: _159  and  _160
REMARK   68  A    between atoms: _163  and  _165
REMARK   69  A    between atoms: _165  and  _166
REMARK   70  A    between atoms: _165  and  _168
REMARK   71  A    between atoms: _168  and  _169
REMARK   72  A    between atoms: _169  and  _170
REMARK   73  A    between atoms: _170  and  _171
REMARK   74  A    between atoms: _180  and  _182
REMARK   75  A    between atoms: _182  and  _183
REMARK   76  A    between atoms: _186  and  _188
REMARK   77  A    between atoms: _188  and  _189
REMARK   78  A    between atoms: _188  and  _191
REMARK   79  A    between atoms: _191  and  _192
REMARK   80  A    between atoms: _194  and  _196
REMARK   81  A    between atoms: _196  and  _197
REMARK   82  A    between atoms: _196  and  _199
REMARK   83  A    between atoms: _199  and  _200
REMARK   84  A    between atoms: _200  and  _201
REMARK   85  A    between atoms: _204  and  _206
REMARK   86  A    between atoms: _206  and  _207
REMARK   87  A    between atoms: _206  and  _209
REMARK   88  A    between atoms: _209  and  _210
REMARK   89  A    between atoms: _215  and  _217
REMARK   90  A    between atoms: _217  and  _218
REMARK   91  A    between atoms: _217  and  _220
REMARK   92  A    between atoms: _220  and  _221
REMARK   93  A    between atoms: _221  and  _222
REMARK   94  A    between atoms: _222  and  _223
REMARK   95  A    between atoms: _232  and  _234
REMARK   96  A    between atoms: _234  and  _235
REMARK   97  A    between atoms: _234  and  _237
REMARK   98  A    between atoms: _237  and  _238
REMARK   99  A    between atoms: _243  and  _245
REMARK  100  A    between atoms: _245  and  _246
REMARK  101  A    between atoms: _245  and  _248
REMARK  102  A    between atoms: _248  and  _249
REMARK                            x       y       z     vdW  Elec       q    Type
REMARK                         _______ _______ _______ _____ _____    ______ ____
ROOT
ATOM      1  CA  TRP A   7      24.403  41.707   9.777  0.00  0.00    +0.153 C 
ENDROOT
BRANCH   1   3
ATOM      2  C   ASN A   6      26.678  41.376  10.499  0.00  0.00    +0.241 C 
ATOM      3  N   TRP A   7      25.417  41.712  10.796  0.00  0.00    -0.297 N 
ATOM      4  H   TRP A   7      25.169  41.978  11.770  0.00  0.00    +0.150 HD
ATOM      5  O   ASN A   6      27.000  40.962   9.395  0.00  0.00    -0.273 OA
BRANCH   2   6
ATOM      6  CA  ASN A   6      27.619  41.470  11.680  0.00  0.00    +0.158 C 
BRANCH   6   8
ATOM      7  C   LYS A   5      26.872  39.348  12.685  0.00  0.00    +0.241 C 
ATOM      8  N   ASN A   6      27.166  40.639  12.799  0.00  0.00    -0.297 N 
ATOM      9  H   ASN A   6      27.069  41.084  13.734  0.00  0.00    +0.150 HD
ATOM     10  O   LYS A   5      26.836  38.749  11.604  0.00  0.00    -0.273 OA
BRANCH   7  11
ATOM     11  CA  LYS A   5      26.370  38.725  13.977  0.00  0.00    +0.149 C 
BRANCH  11  14
ATOM     12  C   LEU A   4      25.001  36.714  14.404  0.00  0.00    +0.241 C 
ATOM     13  O   LEU A   4      24.364  37.275  15.280  0.00  0.00    -0.273 OA
ATOM     14  N   LYS A   5      25.979  37.331  13.701  0.00  0.00    -0.297 N 
ATOM     15  H   LYS A   5      26.467  36.808  12.946  0.00  0.00    +0.150 HD
BRANCH  12  16
ATOM     16  CA  LEU A   4      24.693  35.305  14.000  0.00  0.00    +0.149 C 
BRANCH  16  18
ATOM     17  C   LYS A   3      25.119  33.285  15.325  0.00  0.00    +0.241 C 
ATOM     18  N   LEU A   4      24.529  34.477  15.169  0.00  0.00    -0.297 N 
ATOM     19  H   LEU A   4      23.918  34.825  15.935  0.00  0.00    +0.150 HD
ATOM     20  O   LYS A   3      25.869  32.762  14.486  0.00  0.00    -0.273 OA
BRANCH  17  21
ATOM     21  CA  LYS A   3      24.791  32.576  16.633  0.00  0.00    +0.149 C 
BRANCH  21  24
ATOM     22  C   GLY A   2      23.561  30.452  16.674  0.00  0.00    +0.243 C 
ATOM     23  O   GLY A   2      22.512  30.994  17.067  0.00  0.00    -0.273 OA
ATOM     24  N   LYS A   3      24.697  31.151  16.405  0.00  0.00    -0.297 N 
ATOM     25  H   LYS A   3      25.522  30.645  16.024  0.00  0.00    +0.150 HD
BRANCH  22  26
ATOM     26  CA  GLY A   2      23.632  28.985  16.372  0.00  0.00    +0.176 C 
BRANCH  26  29
ATOM     27  C   GLY A   1      22.989  28.213  18.583  0.00  0.00    +0.240 C 
ATOM     28  O   GLY A   1      23.975  28.801  19.111  0.00  0.00    -0.274 OA
ATOM     29  N   GLY A   2      22.782  28.237  17.281  0.00  0.00    -0.295 N 
ATOM     30  H   GLY A   2      21.981  27.701  16.891  0.00  0.00    +0.150 HD
BRANCH  27  31
ATOM     31  CA  GLY A   1      22.000  27.472  19.503  0.00  0.00    +0.169 C 
BRANCH  31  32
ATOM     32  N   GLY A   1      20.918  26.774  18.813  0.00  0.00    -0.236 NA
ATOM     33  H   GLY A   1      19.974  27.209  18.798  0.00  0.00    +0.142 HD
ENDBRANCH  31  32
ENDBRANCH  27  31
ENDBRANCH  26  29
ENDBRANCH  22  26
ENDBRANCH  21  24
BRANCH  21  34
ATOM     34  CB  LYS A   3      25.912  32.929  17.610  0.00  0.00    +0.029 C 
BRANCH  34  35
ATOM     35  CG  LYS A   3      25.622  32.612  19.058  0.00  0.00    +0.000 C 
BRANCH  35  36
ATOM     36  CD  LYS A   3      26.962  32.706  19.850  0.00  0.00    -0.024 C 
BRANCH  36  37
ATOM     37  CE  LYS A   3      26.810  32.247  21.269  0.00  0.00    -0.086 C 
BRANCH  37  38
ATOM     38  NZ  LYS A   3      27.966  32.703  22.077  0.00  0.00    +0.380 N 
ATOM     39  HZ1 LYS A   3      27.850  32.379  23.059  0.00  0.00    -0.089 HD
ATOM     40  HZ2 LYS A   3      28.014  33.742  22.056  0.00  0.00    -0.089 HD
ATOM     41  HZ3 LYS A   3      28.842  32.307  21.681  0.00  0.00    -0.089 HD
ENDBRANCH  37  38
ENDBRANCH  36  37
ENDBRANCH  35  36
ENDBRANCH  34  35
ENDBRANCH  21  34
ENDBRANCH  17  21
ENDBRANCH  16  18
BRANCH  16  42
ATOM     42  CB  LEU A   4      23.432  35.308  13.143  0.00  0.00    +0.029 C 
BRANCH  42  43
ATOM     43  CG  LEU A   4      23.026  33.947  12.578  0.00  0.00    +0.002 C 
ATOM     44  CD2 LEU A   4      21.597  34.003  12.060  0.00  0.00    +0.000 C 
ATOM     45  CD1 LEU A   4      23.983  33.541  11.464  0.00  0.00    +0.000 C 
ENDBRANCH  42  43
ENDBRANCH  16  42
ENDBRANCH  12  16
ENDBRANCH  11  14
BRANCH  11  46
ATOM     46  CB  LYS A   5      27.462  38.786  15.045  0.00  0.00    +0.029 C 
BRANCH  46  47
ATOM     47  CG  LYS A   5      28.772  38.170  14.557  0.00  0.00    +0.000 C 
BRANCH  47  48
ATOM     48  CD  LYS A   5      29.864  38.218  15.592  0.00  0.00    -0.024 C 
BRANCH  48  49
ATOM     49  CE  LYS A   5      31.070  37.462  15.071  0.00  0.00    -0.086 C 
BRANCH  49  50
ATOM     50  NZ  LYS A   5      32.303  37.942  15.751  0.00  0.00    +0.380 N 
ATOM     51  HZ1 LYS A   5      32.216  37.785  16.775  0.00  0.00    -0.089 HD
ATOM     52  HZ2 LYS A   5      32.428  38.957  15.564  0.00  0.00    -0.089 HD
ATOM     53  HZ3 LYS A   5      33.124  37.418  15.387  0.00  0.00    -0.089 HD
ENDBRANCH  49  50
ENDBRANCH  48  49
ENDBRANCH  47  48
ENDBRANCH  46  47
ENDBRANCH  11  46
ENDBRANCH   7  11
ENDBRANCH   6   8
BRANCH   6  54
ATOM     54  CB  ASN A   6      29.094  41.182  11.378  0.00  0.00    +0.114 C 
BRANCH  54  55
ATOM     55  CG  ASN A   6      29.988  41.510  12.577  0.00  0.00    +0.222 C 
ATOM     56  OD1 ASN A   6      29.748  42.469  13.324  0.00  0.00    -0.275 OA
ATOM     57  ND2 ASN A   6      31.003  40.751  12.756  0.00  0.00    -0.329 N 
ATOM     58 HD21 ASN A   6      31.654  40.931  13.547  0.00  0.00    +0.145 HD
ATOM     59 HD22 ASN A   6      31.176  39.954  12.111  0.00  0.00    +0.145 HD
ENDBRANCH  54  55
ENDBRANCH   6  54
ENDBRANCH   2   6
ENDBRANCH   1   3
BRANCH   1  60
ATOM     60  C   TRP A   7      24.656  42.747   8.689  0.00  0.00    +0.241 C 
ATOM     61  O   TRP A   7      25.179  43.806   8.965  0.00  0.00    -0.273 OA
ATOM     62  N   GLU A   8      24.256  42.436   7.468  0.00  0.00    -0.297 N 
ATOM     63  H   GLU A   8      23.715  41.559   7.329  0.00  0.00    +0.150 HD
BRANCH  62  64
ATOM     64  CA  GLU A   8      24.546  43.284   6.292  0.00  0.00    +0.149 C 
BRANCH  64  65
ATOM     65  C   GLU A   8      23.280  43.709   5.596  0.00  0.00    +0.244 C 
ATOM     66  O   GLU A   8      22.277  43.034   5.677  0.00  0.00    -0.273 OA
ATOM     67  N   PRO A   9      23.327  44.804   4.820  0.00  0.00    -0.272 N 
ATOM     68  CD  PRO A   9      24.481  45.586   4.353  0.00  0.00    +0.094 C 
ATOM     69  CG  PRO A   9      23.917  46.369   3.198  0.00  0.00    +0.024 C 
ATOM     70  CB  PRO A   9      22.489  46.573   3.521  0.00  0.00    +0.031 C 
ATOM     71  CA  PRO A   9      22.072  45.260   4.204  0.00  0.00    +0.152 C 
BRANCH  71  72
ATOM     72  C   PRO A   9      21.543  44.202   3.212  0.00  0.00    +0.241 C 
ATOM     73  N   GLY A  10      20.233  43.994   3.225  0.00  0.00    -0.295 N 
ATOM     74  H   GLY A  10      19.625  44.566   3.845  0.00  0.00    +0.150 HD
ATOM     75  O   PRO A   9      22.329  43.488   2.558  0.00  0.00    -0.273 OA
BRANCH  73  76
ATOM     76  CA  GLY A  10      19.654  42.992   2.394  0.00  0.00    +0.176 C 
BRANCH  76  77
ATOM     77  C   GLY A  10      19.569  41.633   3.077  0.00  0.00    +0.243 C 
ATOM     78  N   ASP A  11      20.271  41.445   4.213  0.00  0.00    -0.296 N 
ATOM     79  H   ASP A  11      20.905  42.201   4.542  0.00  0.00    +0.150 HD
ATOM     80  O   GLY A  10      18.909  40.721   2.553  0.00  0.00    -0.273 OA
BRANCH  78  81
ATOM     81  CA  ASP A  11      20.170  40.197   5.010  0.00  0.00    +0.160 C 
BRANCH  81  82
ATOM     82  C   ASP A  11      18.731  40.082   5.514  0.00  0.00    +0.241 C 
ATOM     83  O   ASP A  11      18.146  41.061   5.893  0.00  0.00    -0.273 OA
ATOM     84  N   ARG A  12      18.181  38.872   5.469  0.00  0.00    -0.297 N 
ATOM     85  H   ARG A  12      18.664  38.123   4.934  0.00  0.00    +0.150 HD
BRANCH  84  86
ATOM     86  CA  ARG A  12      16.941  38.560   6.134  0.00  0.00    +0.149 C 
BRANCH  86  87
ATOM     87  C   ARG A  12      17.229  37.538   7.251  0.00  0.00    +0.241 C 
ATOM     88  N   ALA A  13      16.477  37.624   8.334  0.00  0.00    -0.298 N 
ATOM     89  H   ALA A  13      15.713  38.328   8.385  0.00  0.00    +0.150 HD
ATOM     90  O   ARG A  12      18.105  36.663   7.144  0.00  0.00    -0.273 OA
BRANCH  88  91
ATOM     91  CA  ALA A  13      16.722  36.732   9.453  0.00  0.00    +0.137 C 
ATOM     92  CB  ALA A  13      15.846  37.137  10.640  0.00  0.00    +0.030 C 
BRANCH  91  93
ATOM     93  C   ALA A  13      16.555  35.232   9.124  0.00  0.00    +0.227 C 
ATOM     94  O   ALA A  13      17.443  34.392   9.382  0.00  0.00    -0.286 OA
ENDBRANCH  91  93
ENDBRANCH  88  91
ENDBRANCH  86  87
BRANCH  86  95
ATOM     95  CB  ARG A  12      15.959  37.948   5.142  0.00  0.00    +0.033 C 
BRANCH  95  96
ATOM     96  CG  ARG A  12      15.556  38.891   3.996  0.00  0.00    +0.045 C 
BRANCH  96  97
ATOM     97  CD  ARG A  12      14.312  39.694   4.328  0.00  0.00    +0.174 C 
BRANCH  97  98
ATOM     98  NE  ARG A  12      14.511  40.569   5.463  0.00  0.00    -0.265 N 
ATOM     99  HE  ARG A  12      14.286  40.182   6.402  0.00  0.00    +0.259 HD
ATOM    100  CZ  ARG A  12      14.959  41.834   5.416  0.00  0.00    +0.342 C 
ATOM    101  NH2 ARG A  12      15.098  42.525   6.543  0.00  0.00    -0.292 N 
ATOM    102 HH21 ARG A  12      14.860  42.086   7.455  0.00  0.00    +0.255 HD
ATOM    103 HH22 ARG A  12      15.445  43.505   6.513  0.00  0.00    +0.255 HD
ATOM    104  NH1 ARG A  12      15.299  42.393   4.242  0.00  0.00    -0.292 N 
ATOM    105 HH11 ARG A  12      15.645  43.373   4.214  0.00  0.00    +0.255 HD
ATOM    106 HH12 ARG A  12      15.216  41.845   3.362  0.00  0.00    +0.255 HD
ENDBRANCH  97  98
ENDBRANCH  96  97
ENDBRANCH  95  96
ENDBRANCH  86  95
ENDBRANCH  84  86
ENDBRANCH  81  82
BRANCH  81 107
ATOM    107  CB  ASP A  11      21.102  40.270   6.241  0.00  0.00    +0.143 C 
BRANCH 107 108
ATOM    108  CG  ASP A  11      22.512  39.819   5.961  0.00  0.00    +0.367 C 
ATOM    109  OD2 ASP A  11      23.316  39.890   6.940  0.00  0.00    -0.246 OA
ATOM    110  OD1 ASP A  11      22.810  39.417   4.812  0.00  0.00    -0.246 OA
ENDBRANCH 107 108
ENDBRANCH  81 107
ENDBRANCH  78  81
ENDBRANCH  76  77
ENDBRANCH  73  76
ENDBRANCH  71  72
ENDBRANCH  64  65
BRANCH  64 111
ATOM    111  CB  GLU A   8      25.326  42.468   5.296  0.00  0.00    +0.041 C 
BRANCH 111 112
ATOM    112  CG  GLU A   8      26.661  42.018   5.840  0.00  0.00    +0.116 C 
BRANCH 112 113
ATOM    113  CD  GLU A   8      27.613  41.605   4.755  0.00  0.00    +0.365 C 
ATOM    114  OE2 GLU A   8      28.644  42.293   4.617  0.00  0.00    -0.246 OA
ATOM    115  OE1 GLU A   8      27.339  40.593   4.057  0.00  0.00    -0.246 OA
ENDBRANCH 112 113
ENDBRANCH 111 112
ENDBRANCH  64 111
ENDBRANCH  62  64
ENDBRANCH   1  60
BRANCH   1 116
ATOM    116  CB  TRP A   7      23.057  41.989  10.483  0.00  0.00    +0.057 C 
BRANCH 116 117
ATOM    117  CG  TRP A   7      22.616  40.938  11.434  0.00  0.00    -0.002 A 
ATOM    118  CD1 TRP A   7      22.880  40.840  12.783  0.00  0.00    +0.068 A 
ATOM    119  NE1 TRP A   7      22.377  39.676  13.285  0.00  0.00    -0.352 N 
ATOM    120  HE1 TRP A   7      22.501  39.322  14.255  0.00  0.00    +0.166 HD
ATOM    121  CE2 TRP A   7      21.682  39.059  12.286  0.00  0.00    +0.056 A 
ATOM    122  CZ2 TRP A   7      20.947  37.850  12.313  0.00  0.00    +0.017 A 
ATOM    123  CH2 TRP A   7      20.385  37.439  11.146  0.00  0.00    +0.001 A 
ATOM    124  CZ3 TRP A   7      20.498  38.159   9.990  0.00  0.00    +0.000 A 
ATOM    125  CE3 TRP A   7      21.246  39.352   9.953  0.00  0.00    +0.001 A 
ATOM    126  CD2 TRP A   7      21.831  39.808  11.116  0.00  0.00    +0.013 A 
ENDBRANCH 116 117
ENDBRANCH   1 116
TORSDOF 50
REMARK  Name = ../refined-set-2016/4j45/4j45_pocket.pdb
REMARK  102 active torsions:
REMARK  status: ('A' for Active; 'I' for Inactive)
REMARK    1  A    between atoms: _1  and  _3
REMARK    2  A    between atoms: _3  and  _4
REMARK    3  A    between atoms: _3  and  _6
REMARK    4  A    between atoms: _6  and  _7
REMARK    5  A    between atoms: _10  and  _12
REMARK    6  A    between atoms: _12  and  _13
REMARK    7  A    between atoms: _12  and  _15
REMARK    8  A    between atoms: _15  and  _16
REMARK    9  A    between atoms: _19  and  _21
REMARK   10  A    between atoms: _21  and  _22
REMARK   11  A    between atoms: _21  and  _24
REMARK   12  A    between atoms: _24  and  _25
REMARK   13  A    between atoms: _28  and  _30
REMARK   14  A    between atoms: _30  and  _31
REMARK   15  A    between atoms: _30  and  _33
REMARK   16  A    between atoms: _33  and  _34
REMARK   17  A    between atoms: _34  and  _35
REMARK   18  A    between atoms: _40  and  _42
REMARK   19  A    between atoms: _42  and  _43
REMARK   20  A    between atoms: _42  and  _45
REMARK   21  A    between atoms: _48  and  _50
REMARK   22  A    between atoms: _50  and  _51
REMARK   23  A    between atoms: _50  and  _53
REMARK   24  A    between atoms: _53  and  _54
REMARK   25  A    between atoms: _54  and  _55
REMARK   26  A    between atoms: _60  and  _62
REMARK   27  A    between atoms: _62  and  _63
REMARK   28  A    between atoms: _65  and  _67
REMARK   29  A    between atoms: _67  and  _68
REMARK   30  A    between atoms: _70  and  _72
REMARK   31  A    between atoms: _72  and  _73
REMARK   32  A    between atoms: _72  and  _75
REMARK   33  A    between atoms: _75  and  _76
REMARK   34  A    between atoms: _76  and  _77
REMARK   35  A    between atoms: _77  and  _78
REMARK   36  A    between atoms: _78  and  _79
REMARK   37  A    between atoms: _83  and  _85
REMARK   38  A    between atoms: _85  and  _86
REMARK   39  A    between atoms: _85  and  _88
REMARK   40  A    between atoms: _88  and  _89
REMARK   41  A    between atoms: _92  and  _94
REMARK   42  A    between atoms: _94  and  _95
REMARK   43  A    between atoms: _94  and  _97
REMARK   44  A    between atoms: _97  and  _98
REMARK   45  A    between atoms: _98  and  _99
REMARK   46  A    between atoms: _99  and  _100
REMARK   47  A    between atoms: _100  and  _101
REMARK   48  A    between atoms: _105  and  _107
REMARK   49  A    between atoms: _107  and  _108
REMARK   50  A    between atoms: _107  and  _110
REMARK   51  A    between atoms: _110  and  _111
REMARK   52  A    between atoms: _116  and  _118
REMARK   53  A    between atoms: _118  and  _119
REMARK   54  A    between atoms: _118  and  _121
REMARK   55  A    between atoms: _121  and  _122
REMARK   56  A    between atoms: _132  and  _134
REMARK   57  A    between atoms: _134  and  _135
REMARK   58  A    between atoms: _134  and  _137
REMARK   59  A    between atoms: _137  and  _138
REMARK   60  A    between atoms: _138  and  _139
REMARK   61  A    between atoms: _143  and  _144
REMARK   62  A    between atoms: _149  and  _151
REMARK   63  A    between atoms: _151  and  _152
REMARK   64  A    between atoms: _154  and  _156
REMARK   65  A    between atoms: _156  and  _157
REMARK   66  A    between atoms: _156  and  _159
REMARK   67  A    between atoms: _159  and  _160
REMARK   68  A    between atoms: _163  and  _165
REMARK   69  A    between atoms: _165  and  _166
REMARK   70  A    between atoms: _165  and  _168
REMARK   71  A    between atoms: _168  and  _169
REMARK   72  A    between atoms: _169  and  _170
REMARK   73  A    between atoms: _170  and  _171
REMARK   74  A    between atoms: _180  and  _182
REMARK   75  A    between atoms: _182  and  _183
REMARK   76  A    between atoms: _186  and  _188
REMARK   77  A    between atoms: _188  and  _189
REMARK   78  A    between atoms: _188  and  _191
REMARK   79  A    between atoms: _191  and  _192
REMARK   80  A    between atoms: _194  and  _196
REMARK   81  A    between atoms: _196  and  _197
REMARK   82  A    between atoms: _196  and  _199
REMARK   83  A    between atoms: _199  and  _200
REMARK   84  A    between atoms: _200  and  _201
REMARK   85  A    between atoms: _204  and  _206
REMARK   86  A    between atoms: _206  and  _207
REMARK   87  A    between atoms: _206  and  _209
REMARK   88  A    between atoms: _209  and  _210
REMARK   89  A    between atoms: _215  and  _217
REMARK   90  A    between atoms: _217  and  _218
REMARK   91  A    between atoms: _217  and  _220
REMARK   92  A    between atoms: _220  and  _221
REMARK   93  A    between atoms: _221  and  _222
REMARK   94  A    between atoms: _222  and  _223
REMARK   95  A    between atoms: _232  and  _234
REMARK   96  A    between atoms: _234  and  _235
REMARK   97  A    between atoms: _234  and  _237
REMARK   98  A    between atoms: _237  and  _238
REMARK   99  A    between atoms: _243  and  _245
REMARK  100  A    between atoms: _245  and  _246
REMARK  101  A    between atoms: _245  and  _248
REMARK  102  A    between atoms: _248  and  _249
REMARK                            x       y       z     vdW  Elec       q    Type
REMARK                         _______ _______ _______ _____ _____    ______ ____
ROOT
ATOM      1  CA  GLU A   2      20.656  33.845   7.219  0.00  0.00    +0.149 C 
ENDROOT
BRANCH   1   3
ATOM      2  C   SER A   1      18.937  33.065   5.710  0.00  0.00    +0.241 C 
ATOM      3  N   GLU A   2      19.368  34.019   6.545  0.00  0.00    -0.297 N 
ATOM      4  H   GLU A   2      18.796  34.871   6.712  0.00  0.00    +0.150 HD
ATOM      5  O   SER A   1      19.630  32.113   5.410  0.00  0.00    -0.274 OA
BRANCH   2   6
ATOM      6  CA  SER A   1      17.515  33.147   5.121  0.00  0.00    +0.174 C 
BRANCH   6   7
ATOM      7  N   SER A   1      16.565  33.676   6.100  0.00  0.00    -0.236 NA
ATOM      8  H   SER A   1      16.136  34.614   5.969  0.00  0.00    +0.142 HD
ENDBRANCH   6   7
BRANCH   6   9
ATOM      9  CB  SER A   1      17.503  33.955   3.835  0.00  0.00    +0.163 C 
BRANCH   9  10
ATOM     10  OG  SER A   1      17.783  35.293   4.109  0.00  0.00    -0.380 OA
ATOM     11  H   SER A   1      18.677  35.363   4.529  0.00  0.00    +0.211 HD
ENDBRANCH   9  10
ENDBRANCH   6   9
ENDBRANCH   2   6
ENDBRANCH   1   3
BRANCH   1  12
ATOM     12  C   GLU A   2      20.670  32.670   8.183  0.00  0.00    +0.241 C 
ATOM     13  N   HIS A   3      19.573  32.482   8.903  0.00  0.00    -0.298 N 
ATOM     14  H   HIS A   3      18.782  33.151   8.817  0.00  0.00    +0.150 HD
ATOM     15  O   GLU A   2      21.629  31.902   8.290  0.00  0.00    -0.273 OA
BRANCH  13  16
ATOM     16  CA  HIS A   3      19.462  31.352   9.811  0.00  0.00    +0.143 C 
BRANCH  16  17
ATOM     17  C   HIS A   3      19.554  30.035   9.028  0.00  0.00    +0.227 C 
ATOM     18  O   HIS A   3      20.293  29.110   9.409  0.00  0.00    -0.286 OA
ENDBRANCH  16  17
BRANCH  16  19
ATOM     19  CB  HIS A   3      18.087  31.498  10.526  0.00  0.00    +0.075 C 
BRANCH  19  20
ATOM     20  CG  HIS A   3      17.907  30.617  11.719  0.00  0.00    +0.082 A 
ATOM     21  ND1 HIS A   3      16.827  30.718  12.579  0.00  0.00    -0.227 NA
ATOM     22  CE1 HIS A   3      16.955  29.824  13.549  0.00  0.00    +0.199 A 
ATOM     23  NE2 HIS A   3      18.054  29.125  13.344  0.00  0.00    -0.221 NA
ATOM     24  CD2 HIS A   3      18.645  29.578  12.177  0.00  0.00    +0.115 A 
ENDBRANCH  19  20
ENDBRANCH  16  19
ENDBRANCH  13  16
ENDBRANCH   1  12
BRANCH   1  25
ATOM     25  CB  GLU A   2      21.143  35.082   7.938  0.00  0.00    +0.041 C 
BRANCH  25  26
ATOM     26  CG  GLU A   2      21.549  36.235   7.002  0.00  0.00    +0.116 C 
BRANCH  26  27
ATOM     27  CD  GLU A   2      22.631  35.817   6.041  0.00  0.00    +0.365 C 
ATOM     28  OE2 GLU A   2      23.753  35.602   6.502  0.00  0.00    -0.246 OA
ATOM     29  OE1 GLU A   2      22.292  35.659   4.857  0.00  0.00    -0.246 OA
ENDBRANCH  26  27
ENDBRANCH  25  26
ENDBRANCH   1  25
TORSDOF 13
REMARK  Name = ../refined-set-2016/4j45/4j45_pocket.pdb
REMARK  102 active torsions:
REMARK  status: ('A' for Active; 'I' for Inactive)
REMARK    1  A    between atoms: _1  and  _3
REMARK    2  A    between atoms: _3  and  _4
REMARK    3  A    between atoms: _3  and  _6
REMARK    4  A    between atoms: _6  and  _7
REMARK    5  A    between atoms: _10  and  _12
REMARK    6  A    between atoms: _12  and  _13
REMARK    7  A    between atoms: _12  and  _15
REMARK    8  A    between atoms: _15  and  _16
REMARK    9  A    between atoms: _19  and  _21
REMARK   10  A    between atoms: _21  and  _22
REMARK   11  A    between atoms: _21  and  _24
REMARK   12  A    between atoms: _24  and  _25
REMARK   13  A    between atoms: _28  and  _30
REMARK   14  A    between atoms: _30  and  _31
REMARK   15  A    between atoms: _30  and  _33
REMARK   16  A    between atoms: _33  and  _34
REMARK   17  A    between atoms: _34  and  _35
REMARK   18  A    between atoms: _40  and  _42
REMARK   19  A    between atoms: _42  and  _43
REMARK   20  A    between atoms: _42  and  _45
REMARK   21  A    between atoms: _48  and  _50
REMARK   22  A    between atoms: _50  and  _51
REMARK   23  A    between atoms: _50  and  _53
REMARK   24  A    between atoms: _53  and  _54
REMARK   25  A    between atoms: _54  and  _55
REMARK   26  A    between atoms: _60  and  _62
REMARK   27  A    between atoms: _62  and  _63
REMARK   28  A    between atoms: _65  and  _67
REMARK   29  A    between atoms: _67  and  _68
REMARK   30  A    between atoms: _70  and  _72
REMARK   31  A    between atoms: _72  and  _73
REMARK   32  A    between atoms: _72  and  _75
REMARK   33  A    between atoms: _75  and  _76
REMARK   34  A    between atoms: _76  and  _77
REMARK   35  A    between atoms: _77  and  _78
REMARK   36  A    between atoms: _78  and  _79
REMARK   37  A    between atoms: _83  and  _85
REMARK   38  A    between atoms: _85  and  _86
REMARK   39  A    between atoms: _85  and  _88
REMARK   40  A    between atoms: _88  and  _89
REMARK   41  A    between atoms: _92  and  _94
REMARK   42  A    between atoms: _94  and  _95
REMARK   43  A    between atoms: _94  and  _97
REMARK   44  A    between atoms: _97  and  _98
REMARK   45  A    between atoms: _98  and  _99
REMARK   46  A    between atoms: _99  and  _100
REMARK   47  A    between atoms: _100  and  _101
REMARK   48  A    between atoms: _105  and  _107
REMARK   49  A    between atoms: _107  and  _108
REMARK   50  A    between atoms: _107  and  _110
REMARK   51  A    between atoms: _110  and  _111
REMARK   52  A    between atoms: _116  and  _118
REMARK   53  A    between atoms: _118  and  _119
REMARK   54  A    between atoms: _118  and  _121
REMARK   55  A    between atoms: _121  and  _122
REMARK   56  A    between atoms: _132  and  _134
REMARK   57  A    between atoms: _134  and  _135
REMARK   58  A    between atoms: _134  and  _137
REMARK   59  A    between atoms: _137  and  _138
REMARK   60  A    between atoms: _138  and  _139
REMARK   61  A    between atoms: _143  and  _144
REMARK   62  A    between atoms: _149  and  _151
REMARK   63  A    between atoms: _151  and  _152
REMARK   64  A    between atoms: _154  and  _156
REMARK   65  A    between atoms: _156  and  _157
REMARK   66  A    between atoms: _156  and  _159
REMARK   67  A    between atoms: _159  and  _160
REMARK   68  A    between atoms: _163  and  _165
REMARK   69  A    between atoms: _165  and  _166
REMARK   70  A    between atoms: _165  and  _168
REMARK   71  A    between atoms: _168  and  _169
REMARK   72  A    between atoms: _169  and  _170
REMARK   73  A    between atoms: _170  and  _171
REMARK   74  A    between atoms: _180  and  _182
REMARK   75  A    between atoms: _182  and  _183
REMARK   76  A    between atoms: _186  and  _188
REMARK   77  A    between atoms: _188  and  _189
REMARK   78  A    between atoms: _188  and  _191
REMARK   79  A    between atoms: _191  and  _192
REMARK   80  A    between atoms: _194  and  _196
REMARK   81  A    between atoms: _196  and  _197
REMARK   82  A    between atoms: _196  and  _199
REMARK   83  A    between atoms: _199  and  _200
REMARK   84  A    between atoms: _200  and  _201
REMARK   85  A    between atoms: _204  and  _206
REMARK   86  A    between atoms: _206  and  _207
REMARK   87  A    between atoms: _206  and  _209
REMARK   88  A    between atoms: _209  and  _210
REMARK   89  A    between atoms: _215  and  _217
REMARK   90  A    between atoms: _217  and  _218
REMARK   91  A    between atoms: _217  and  _220
REMARK   92  A    between atoms: _220  and  _221
REMARK   93  A    between atoms: _221  and  _222
REMARK   94  A    between atoms: _222  and  _223
REMARK   95  A    between atoms: _232  and  _234
REMARK   96  A    between atoms: _234  and  _235
REMARK   97  A    between atoms: _234  and  _237
REMARK   98  A    between atoms: _237  and  _238
REMARK   99  A    between atoms: _243  and  _245
REMARK  100  A    between atoms: _245  and  _246
REMARK  101  A    between atoms: _245  and  _248
REMARK  102  A    between atoms: _248  and  _249
REMARK                            x       y       z     vdW  Elec       q    Type
REMARK                         _______ _______ _______ _____ _____    ______ ____
ROOT
ATOM      1  CA  HIS A   2      24.242  28.966   8.291  0.00  0.00    +0.155 C 
ENDROOT
BRANCH   1   3
ATOM      2  C   ARG A   1      23.120  28.866   6.162  0.00  0.00    +0.238 C 
ATOM      3  N   HIS A   2      23.196  29.399   7.374  0.00  0.00    -0.297 N 
ATOM      4  H   HIS A   2      22.511  30.124   7.669  0.00  0.00    +0.150 HD
ATOM      5  O   ARG A   1      23.912  27.958   5.780  0.00  0.00    -0.274 OA
BRANCH   2   6
ATOM      6  CA  ARG A   1      22.051  29.420   5.274  0.00  0.00    +0.145 C 
BRANCH   6   7
ATOM      7  N   ARG A   1      20.779  29.566   6.013  0.00  0.00    -0.238 NA
ATOM      8  H   ARG A   1      20.395  30.516   6.189  0.00  0.00    +0.142 HD
ENDBRANCH   6   7
BRANCH   6   9
ATOM      9  CB  ARG A   1      22.512  30.822   4.800  0.00  0.00    +0.030 C 
BRANCH   9  10
ATOM     10  CG  ARG A   1      23.804  30.832   4.019  0.00  0.00    +0.045 C 
BRANCH  10  11
ATOM     11  CD  ARG A   1      23.853  32.111   3.188  0.00  0.00    +0.174 C 
BRANCH  11  12
ATOM     12  NE  ARG A   1      24.323  33.274   3.940  0.00  0.00    -0.265 N 
ATOM     13  HE  ARG A   1      23.605  33.917   4.331  0.00  0.00    +0.259 HD
ATOM     14  CZ  ARG A   1      25.610  33.571   4.162  0.00  0.00    +0.342 C 
ATOM     15  NH2 ARG A   1      25.944  34.688   4.804  0.00  0.00    -0.292 N 
ATOM     16 HH21 ARG A   1      25.203  35.338   5.137  0.00  0.00    +0.255 HD
ATOM     17 HH22 ARG A   1      26.946  34.911   4.972  0.00  0.00    +0.255 HD
ATOM     18  NH1 ARG A   1      26.564  32.751   3.775  0.00  0.00    -0.292 N 
ATOM     19 HH11 ARG A   1      27.560  32.992   3.952  0.00  0.00    +0.255 HD
ATOM     20 HH12 ARG A   1      26.322  31.863   3.292  0.00  0.00    +0.255 HD
ENDBRANCH  11  12
ENDBRANCH  10  11
ENDBRANCH   9  10
ENDBRANCH   6   9
ENDBRANCH   2   6
ENDBRANCH   1   3
BRANCH   1  21
ATOM     21  C   HIS A   2      23.960  27.724   9.079  0.00  0.00    +0.241 C 
ATOM     22  O   HIS A   2      24.891  26.966   9.440  0.00  0.00    -0.273 OA
ATOM     23  N   PHE A   3      22.680  27.535   9.410  0.00  0.00    -0.298 N 
ATOM     24  H   PHE A   3      21.962  28.182   9.027  0.00  0.00    +0.150 HD
BRANCH  23  25
ATOM     25  CA  PHE A   3      22.253  26.448  10.293  0.00  0.00    +0.141 C 
BRANCH  25  26
ATOM     26  C   PHE A   3      21.068  25.702   9.665  0.00  0.00    +0.227 C 
ATOM     27  O   PHE A   3      19.975  25.589  10.265  0.00  0.00    -0.286 OA
ENDBRANCH  25  26
BRANCH  25  28
ATOM     28  CB  PHE A   3      21.903  26.978  11.697  0.00  0.00    +0.054 C 
BRANCH  28  29
ATOM     29  CG  PHE A   3      22.954  27.937  12.248  0.00  0.00    -0.020 A 
ATOM     30  CD2 PHE A   3      24.246  27.489  12.522  0.00  0.00    -0.004 A 
ATOM     31  CE2 PHE A   3      25.204  28.360  12.996  0.00  0.00    -0.000 A 
ATOM     32  CZ  PHE A   3      24.897  29.665  13.228  0.00  0.00    -0.000 A 
ATOM     33  CE1 PHE A   3      23.623  30.149  12.961  0.00  0.00    -0.000 A 
ATOM     34  CD1 PHE A   3      22.656  29.245  12.516  0.00  0.00    -0.004 A 
ENDBRANCH  28  29
ENDBRANCH  25  28
ENDBRANCH  23  25
ENDBRANCH   1  21
BRANCH   1  35
ATOM     35  CB  HIS A   2      24.539  30.093   9.251  0.00  0.00    +0.076 C 
BRANCH  35  36
ATOM     36  CG  HIS A   2      25.200  31.265   8.596  0.00  0.00    +0.082 A 
ATOM     37  ND1 HIS A   2      26.539  31.277   8.272  0.00  0.00    -0.227 NA
ATOM     38  CE1 HIS A   2      26.824  32.424   7.669  0.00  0.00    +0.199 A 
ATOM     39  NE2 HIS A   2      25.732  33.153   7.606  0.00  0.00    -0.221 NA
ATOM     40  CD2 HIS A   2      24.692  32.437   8.175  0.00  0.00    +0.115 A 
ENDBRANCH  35  36
ENDBRANCH   1  35
TORSDOF 14
REMARK  Name = ../refined-set-2016/4j45/4j45_pocket.pdb
REMARK  102 active torsions:
REMARK  status: ('A' for Active; 'I' for Inactive)
REMARK    1  A    between atoms: _1  and  _3
REMARK    2  A    between atoms: _3  and  _4
REMARK    3  A    between atoms: _3  and  _6
REMARK    4  A    between atoms: _6  and  _7
REMARK    5  A    between atoms: _10  and  _12
REMARK    6  A    between atoms: _12  and  _13
REMARK    7  A    between atoms: _12  and  _15
REMARK    8  A    between atoms: _15  and  _16
REMARK    9  A    between atoms: _19  and  _21
REMARK   10  A    between atoms: _21  and  _22
REMARK   11  A    between atoms: _21  and  _24
REMARK   12  A    between atoms: _24  and  _25
REMARK   13  A    between atoms: _28  and  _30
REMARK   14  A    between atoms: _30  and  _31
REMARK   15  A    between atoms: _30  and  _33
REMARK   16  A    between atoms: _33  and  _34
REMARK   17  A    between atoms: _34  and  _35
REMARK   18  A    between atoms: _40  and  _42
REMARK   19  A    between atoms: _42  and  _43
REMARK   20  A    between atoms: _42  and  _45
REMARK   21  A    between atoms: _48  and  _50
REMARK   22  A    between atoms: _50  and  _51
REMARK   23  A    between atoms: _50  and  _53
REMARK   24  A    between atoms: _53  and  _54
REMARK   25  A    between atoms: _54  and  _55
REMARK   26  A    between atoms: _60  and  _62
REMARK   27  A    between atoms: _62  and  _63
REMARK   28  A    between atoms: _65  and  _67
REMARK   29  A    between atoms: _67  and  _68
REMARK   30  A    between atoms: _70  and  _72
REMARK   31  A    between atoms: _72  and  _73
REMARK   32  A    between atoms: _72  and  _75
REMARK   33  A    between atoms: _75  and  _76
REMARK   34  A    between atoms: _76  and  _77
REMARK   35  A    between atoms: _77  and  _78
REMARK   36  A    between atoms: _78  and  _79
REMARK   37  A    between atoms: _83  and  _85
REMARK   38  A    between atoms: _85  and  _86
REMARK   39  A    between atoms: _85  and  _88
REMARK   40  A    between atoms: _88  and  _89
REMARK   41  A    between atoms: _92  and  _94
REMARK   42  A    between atoms: _94  and  _95
REMARK   43  A    between atoms: _94  and  _97
REMARK   44  A    between atoms: _97  and  _98
REMARK   45  A    between atoms: _98  and  _99
REMARK   46  A    between atoms: _99  and  _100
REMARK   47  A    between atoms: _100  and  _101
REMARK   48  A    between atoms: _105  and  _107
REMARK   49  A    between atoms: _107  and  _108
REMARK   50  A    between atoms: _107  and  _110
REMARK   51  A    between atoms: _110  and  _111
REMARK   52  A    between atoms: _116  and  _118
REMARK   53  A    between atoms: _118  and  _119
REMARK   54  A    between atoms: _118  and  _121
REMARK   55  A    between atoms: _121  and  _122
REMARK   56  A    between atoms: _132  and  _134
REMARK   57  A    between atoms: _134  and  _135
REMARK   58  A    between atoms: _134  and  _137
REMARK   59  A    between atoms: _137  and  _138
REMARK   60  A    between atoms: _138  and  _139
REMARK   61  A    between atoms: _143  and  _144
REMARK   62  A    between atoms: _149  and  _151
REMARK   63  A    between atoms: _151  and  _152
REMARK   64  A    between atoms: _154  and  _156
REMARK   65  A    between atoms: _156  and  _157
REMARK   66  A    between atoms: _156  and  _159
REMARK   67  A    between atoms: _159  and  _160
REMARK   68  A    between atoms: _163  and  _165
REMARK   69  A    between atoms: _165  and  _166
REMARK   70  A    between atoms: _165  and  _168
REMARK   71  A    between atoms: _168  and  _169
REMARK   72  A    between atoms: _169  and  _170
REMARK   73  A    between atoms: _170  and  _171
REMARK   74  A    between atoms: _180  and  _182
REMARK   75  A    between atoms: _182  and  _183
REMARK   76  A    between atoms: _186  and  _188
REMARK   77  A    between atoms: _188  and  _189
REMARK   78  A    between atoms: _188  and  _191
REMARK   79  A    between atoms: _191  and  _192
REMARK   80  A    between atoms: _194  and  _196
REMARK   81  A    between atoms: _196  and  _197
REMARK   82  A    between atoms: _196  and  _199
REMARK   83  A    between atoms: _199  and  _200
REMARK   84  A    between atoms: _200  and  _201
REMARK   85  A    between atoms: _204  and  _206
REMARK   86  A    between atoms: _206  and  _207
REMARK   87  A    between atoms: _206  and  _209
REMARK   88  A    between atoms: _209  and  _210
REMARK   89  A    between atoms: _215  and  _217
REMARK   90  A    between atoms: _217  and  _218
REMARK   91  A    between atoms: _217  and  _220
REMARK   92  A    between atoms: _220  and  _221
REMARK   93  A    between atoms: _221  and  _222
REMARK   94  A    between atoms: _222  and  _223
REMARK   95  A    between atoms: _232  and  _234
REMARK   96  A    between atoms: _234  and  _235
REMARK   97  A    between atoms: _234  and  _237
REMARK   98  A    between atoms: _237  and  _238
REMARK   99  A    between atoms: _243  and  _245
REMARK  100  A    between atoms: _245  and  _246
REMARK  101  A    between atoms: _245  and  _248
REMARK  102  A    between atoms: _248  and  _249
REMARK                            x       y       z     vdW  Elec       q    Type
REMARK                         _______ _______ _______ _____ _____    ______ ____
ROOT
ATOM      1  O   HOH     1      20.704  43.743  12.276  0.00  0.00    +0.000 OA
ENDROOT
TORSDOF 0
REMARK  Name = ../refined-set-2016/4j45/4j45_pocket.pdb
REMARK  102 active torsions:
REMARK  status: ('A' for Active; 'I' for Inactive)
REMARK    1  A    between atoms: _1  and  _3
REMARK    2  A    between atoms: _3  and  _4
REMARK    3  A    between atoms: _3  and  _6
REMARK    4  A    between atoms: _6  and  _7
REMARK    5  A    between atoms: _10  and  _12
REMARK    6  A    between atoms: _12  and  _13
REMARK    7  A    between atoms: _12  and  _15
REMARK    8  A    between atoms: _15  and  _16
REMARK    9  A    between atoms: _19  and  _21
REMARK   10  A    between atoms: _21  and  _22
REMARK   11  A    between atoms: _21  and  _24
REMARK   12  A    between atoms: _24  and  _25
REMARK   13  A    between atoms: _28  and  _30
REMARK   14  A    between atoms: _30  and  _31
REMARK   15  A    between atoms: _30  and  _33
REMARK   16  A    between atoms: _33  and  _34
REMARK   17  A    between atoms: _34  and  _35
REMARK   18  A    between atoms: _40  and  _42
REMARK   19  A    between atoms: _42  and  _43
REMARK   20  A    between atoms: _42  and  _45
REMARK   21  A    between atoms: _48  and  _50
REMARK   22  A    between atoms: _50  and  _51
REMARK   23  A    between atoms: _50  and  _53
REMARK   24  A    between atoms: _53  and  _54
REMARK   25  A    between atoms: _54  and  _55
REMARK   26  A    between atoms: _60  and  _62
REMARK   27  A    between atoms: _62  and  _63
REMARK   28  A    between atoms: _65  and  _67
REMARK   29  A    between atoms: _67  and  _68
REMARK   30  A    between atoms: _70  and  _72
REMARK   31  A    between atoms: _72  and  _73
REMARK   32  A    between atoms: _72  and  _75
REMARK   33  A    between atoms: _75  and  _76
REMARK   34  A    between atoms: _76  and  _77
REMARK   35  A    between atoms: _77  and  _78
REMARK   36  A    between atoms: _78  and  _79
REMARK   37  A    between atoms: _83  and  _85
REMARK   38  A    between atoms: _85  and  _86
REMARK   39  A    between atoms: _85  and  _88
REMARK   40  A    between atoms: _88  and  _89
REMARK   41  A    between atoms: _92  and  _94
REMARK   42  A    between atoms: _94  and  _95
REMARK   43  A    between atoms: _94  and  _97
REMARK   44  A    between atoms: _97  and  _98
REMARK   45  A    between atoms: _98  and  _99
REMARK   46  A    between atoms: _99  and  _100
REMARK   47  A    between atoms: _100  and  _101
REMARK   48  A    between atoms: _105  and  _107
REMARK   49  A    between atoms: _107  and  _108
REMARK   50  A    between atoms: _107  and  _110
REMARK   51  A    between atoms: _110  and  _111
REMARK   52  A    between atoms: _116  and  _118
REMARK   53  A    between atoms: _118  and  _119
REMARK   54  A    between atoms: _118  and  _121
REMARK   55  A    between atoms: _121  and  _122
REMARK   56  A    between atoms: _132  and  _134
REMARK   57  A    between atoms: _134  and  _135
REMARK   58  A    between atoms: _134  and  _137
REMARK   59  A    between atoms: _137  and  _138
REMARK   60  A    between atoms: _138  and  _139
REMARK   61  A    between atoms: _143  and  _144
REMARK   62  A    between atoms: _149  and  _151
REMARK   63  A    between atoms: _151  and  _152
REMARK   64  A    between atoms: _154  and  _156
REMARK   65  A    between atoms: _156  and  _157
REMARK   66  A    between atoms: _156  and  _159
REMARK   67  A    between atoms: _159  and  _160
REMARK   68  A    between atoms: _163  and  _165
REMARK   69  A    between atoms: _165  and  _166
REMARK   70  A    between atoms: _165  and  _168
REMARK   71  A    between atoms: _168  and  _169
REMARK   72  A    between atoms: _169  and  _170
REMARK   73  A    between atoms: _170  and  _171
REMARK   74  A    between atoms: _180  and  _182
REMARK   75  A    between atoms: _182  and  _183
REMARK   76  A    between atoms: _186  and  _188
REMARK   77  A    between atoms: _188  and  _189
REMARK   78  A    between atoms: _188  and  _191
REMARK   79  A    between atoms: _191  and  _192
REMARK   80  A    between atoms: _194  and  _196
REMARK   81  A    between atoms: _196  and  _197
REMARK   82  A    between atoms: _196  and  _199
REMARK   83  A    between atoms: _199  and  _200
REMARK   84  A    between atoms: _200  and  _201
REMARK   85  A    between atoms: _204  and  _206
REMARK   86  A    between atoms: _206  and  _207
REMARK   87  A    between atoms: _206  and  _209
REMARK   88  A    between atoms: _209  and  _210
REMARK   89  A    between atoms: _215  and  _217
REMARK   90  A    between atoms: _217  and  _218
REMARK   91  A    between atoms: _217  and  _220
REMARK   92  A    between atoms: _220  and  _221
REMARK   93  A    between atoms: _221  and  _222
REMARK   94  A    between atoms: _222  and  _223
REMARK   95  A    between atoms: _232  and  _234
REMARK   96  A    between atoms: _234  and  _235
REMARK   97  A    between atoms: _234  and  _237
REMARK   98  A    between atoms: _237  and  _238
REMARK   99  A    between atoms: _243  and  _245
REMARK  100  A    between atoms: _245  and  _246
REMARK  101  A    between atoms: _245  and  _248
REMARK  102  A    between atoms: _248  and  _249
REMARK                            x       y       z     vdW  Elec       q    Type
REMARK                         _______ _______ _______ _____ _____    ______ ____
ROOT
ATOM      1  O   HOH     1      19.760  36.922   3.931  0.00  0.00    +0.000 OA
ENDROOT
TORSDOF 0
REMARK  Name = ../refined-set-2016/4j45/4j45_pocket.pdb
REMARK  102 active torsions:
REMARK  status: ('A' for Active; 'I' for Inactive)
REMARK    1  A    between atoms: _1  and  _3
REMARK    2  A    between atoms: _3  and  _4
REMARK    3  A    between atoms: _3  and  _6
REMARK    4  A    between atoms: _6  and  _7
REMARK    5  A    between atoms: _10  and  _12
REMARK    6  A    between atoms: _12  and  _13
REMARK    7  A    between atoms: _12  and  _15
REMARK    8  A    between atoms: _15  and  _16
REMARK    9  A    between atoms: _19  and  _21
REMARK   10  A    between atoms: _21  and  _22
REMARK   11  A    between atoms: _21  and  _24
REMARK   12  A    between atoms: _24  and  _25
REMARK   13  A    between atoms: _28  and  _30
REMARK   14  A    between atoms: _30  and  _31
REMARK   15  A    between atoms: _30  and  _33
REMARK   16  A    between atoms: _33  and  _34
REMARK   17  A    between atoms: _34  and  _35
REMARK   18  A    between atoms: _40  and  _42
REMARK   19  A    between atoms: _42  and  _43
REMARK   20  A    between atoms: _42  and  _45
REMARK   21  A    between atoms: _48  and  _50
REMARK   22  A    between atoms: _50  and  _51
REMARK   23  A    between atoms: _50  and  _53
REMARK   24  A    between atoms: _53  and  _54
REMARK   25  A    between atoms: _54  and  _55
REMARK   26  A    between atoms: _60  and  _62
REMARK   27  A    between atoms: _62  and  _63
REMARK   28  A    between atoms: _65  and  _67
REMARK   29  A    between atoms: _67  and  _68
REMARK   30  A    between atoms: _70  and  _72
REMARK   31  A    between atoms: _72  and  _73
REMARK   32  A    between atoms: _72  and  _75
REMARK   33  A    between atoms: _75  and  _76
REMARK   34  A    between atoms: _76  and  _77
REMARK   35  A    between atoms: _77  and  _78
REMARK   36  A    between atoms: _78  and  _79
REMARK   37  A    between atoms: _83  and  _85
REMARK   38  A    between atoms: _85  and  _86
REMARK   39  A    between atoms: _85  and  _88
REMARK   40  A    between atoms: _88  and  _89
REMARK   41  A    between atoms: _92  and  _94
REMARK   42  A    between atoms: _94  and  _95
REMARK   43  A    between atoms: _94  and  _97
REMARK   44  A    between atoms: _97  and  _98
REMARK   45  A    between atoms: _98  and  _99
REMARK   46  A    between atoms: _99  and  _100
REMARK   47  A    between atoms: _100  and  _101
REMARK   48  A    between atoms: _105  and  _107
REMARK   49  A    between atoms: _107  and  _108
REMARK   50  A    between atoms: _107  and  _110
REMARK   51  A    between atoms: _110  and  _111
REMARK   52  A    between atoms: _116  and  _118
REMARK   53  A    between atoms: _118  and  _119
REMARK   54  A    between atoms: _118  and  _121
REMARK   55  A    between atoms: _121  and  _122
REMARK   56  A    between atoms: _132  and  _134
REMARK   57  A    between atoms: _134  and  _135
REMARK   58  A    between atoms: _134  and  _137
REMARK   59  A    between atoms: _137  and  _138
REMARK   60  A    between atoms: _138  and  _139
REMARK   61  A    between atoms: _143  and  _144
REMARK   62  A    between atoms: _149  and  _151
REMARK   63  A    between atoms: _151  and  _152
REMARK   64  A    between atoms: _154  and  _156
REMARK   65  A    between atoms: _156  and  _157
REMARK   66  A    between atoms: _156  and  _159
REMARK   67  A    between atoms: _159  and  _160
REMARK   68  A    between atoms: _163  and  _165
REMARK   69  A    between atoms: _165  and  _166
REMARK   70  A    between atoms: _165  and  _168
REMARK   71  A    between atoms: _168  and  _169
REMARK   72  A    between atoms: _169  and  _170
REMARK   73  A    between atoms: _170  and  _171
REMARK   74  A    between atoms: _180  and  _182
REMARK   75  A    between atoms: _182  and  _183
REMARK   76  A    between atoms: _186  and  _188
REMARK   77  A    between atoms: _188  and  _189
REMARK   78  A    between atoms: _188  and  _191
REMARK   79  A    between atoms: _191  and  _192
REMARK   80  A    between atoms: _194  and  _196
REMARK   81  A    between atoms: _196  and  _197
REMARK   82  A    between atoms: _196  and  _199
REMARK   83  A    between atoms: _199  and  _200
REMARK   84  A    between atoms: _200  and  _201
REMARK   85  A    between atoms: _204  and  _206
REMARK   86  A    between atoms: _206  and  _207
REMARK   87  A    between atoms: _206  and  _209
REMARK   88  A    between atoms: _209  and  _210
REMARK   89  A    between atoms: _215  and  _217
REMARK   90  A    between atoms: _217  and  _218
REMARK   91  A    between atoms: _217  and  _220
REMARK   92  A    between atoms: _220  and  _221
REMARK   93  A    between atoms: _221  and  _222
REMARK   94  A    between atoms: _222  and  _223
REMARK   95  A    between atoms: _232  and  _234
REMARK   96  A    between atoms: _234  and  _235
REMARK   97  A    between atoms: _234  and  _237
REMARK   98  A    between atoms: _237  and  _238
REMARK   99  A    between atoms: _243  and  _245
REMARK  100  A    between atoms: _245  and  _246
REMARK  101  A    between atoms: _245  and  _248
REMARK  102  A    between atoms: _248  and  _249
REMARK                            x       y       z     vdW  Elec       q    Type
REMARK                         _______ _______ _______ _____ _____    ______ ____
ROOT
ATOM      1  O   HOH     1      26.746  35.158  23.793  0.00  0.00    +0.000 OA
ENDROOT
TORSDOF 0
REMARK  Name = ../refined-set-2016/4j45/4j45_pocket.pdb
REMARK  102 active torsions:
REMARK  status: ('A' for Active; 'I' for Inactive)
REMARK    1  A    between atoms: _1  and  _3
REMARK    2  A    between atoms: _3  and  _4
REMARK    3  A    between atoms: _3  and  _6
REMARK    4  A    between atoms: _6  and  _7
REMARK    5  A    between atoms: _10  and  _12
REMARK    6  A    between atoms: _12  and  _13
REMARK    7  A    between atoms: _12  and  _15
REMARK    8  A    between atoms: _15  and  _16
REMARK    9  A    between atoms: _19  and  _21
REMARK   10  A    between atoms: _21  and  _22
REMARK   11  A    between atoms: _21  and  _24
REMARK   12  A    between atoms: _24  and  _25
REMARK   13  A    between atoms: _28  and  _30
REMARK   14  A    between atoms: _30  and  _31
REMARK   15  A    between atoms: _30  and  _33
REMARK   16  A    between atoms: _33  and  _34
REMARK   17  A    between atoms: _34  and  _35
REMARK   18  A    between atoms: _40  and  _42
REMARK   19  A    between atoms: _42  and  _43
REMARK   20  A    between atoms: _42  and  _45
REMARK   21  A    between atoms: _48  and  _50
REMARK   22  A    between atoms: _50  and  _51
REMARK   23  A    between atoms: _50  and  _53
REMARK   24  A    between atoms: _53  and  _54
REMARK   25  A    between atoms: _54  and  _55
REMARK   26  A    between atoms: _60  and  _62
REMARK   27  A    between atoms: _62  and  _63
REMARK   28  A    between atoms: _65  and  _67
REMARK   29  A    between atoms: _67  and  _68
REMARK   30  A    between atoms: _70  and  _72
REMARK   31  A    between atoms: _72  and  _73
REMARK   32  A    between atoms: _72  and  _75
REMARK   33  A    between atoms: _75  and  _76
REMARK   34  A    between atoms: _76  and  _77
REMARK   35  A    between atoms: _77  and  _78
REMARK   36  A    between atoms: _78  and  _79
REMARK   37  A    between atoms: _83  and  _85
REMARK   38  A    between atoms: _85  and  _86
REMARK   39  A    between atoms: _85  and  _88
REMARK   40  A    between atoms: _88  and  _89
REMARK   41  A    between atoms: _92  and  _94
REMARK   42  A    between atoms: _94  and  _95
REMARK   43  A    between atoms: _94  and  _97
REMARK   44  A    between atoms: _97  and  _98
REMARK   45  A    between atoms: _98  and  _99
REMARK   46  A    between atoms: _99  and  _100
REMARK   47  A    between atoms: _100  and  _101
REMARK   48  A    between atoms: _105  and  _107
REMARK   49  A    between atoms: _107  and  _108
REMARK   50  A    between atoms: _107  and  _110
REMARK   51  A    between atoms: _110  and  _111
REMARK   52  A    between atoms: _116  and  _118
REMARK   53  A    between atoms: _118  and  _119
REMARK   54  A    between atoms: _118  and  _121
REMARK   55  A    between atoms: _121  and  _122
REMARK   56  A    between atoms: _132  and  _134
REMARK   57  A    between atoms: _134  and  _135
REMARK   58  A    between atoms: _134  and  _137
REMARK   59  A    between atoms: _137  and  _138
REMARK   60  A    between atoms: _138  and  _139
REMARK   61  A    between atoms: _143  and  _144
REMARK   62  A    between atoms: _149  and  _151
REMARK   63  A    between atoms: _151  and  _152
REMARK   64  A    between atoms: _154  and  _156
REMARK   65  A    between atoms: _156  and  _157
REMARK   66  A    between atoms: _156  and  _159
REMARK   67  A    between atoms: _159  and  _160
REMARK   68  A    between atoms: _163  and  _165
REMARK   69  A    between atoms: _165  and  _166
REMARK   70  A    between atoms: _165  and  _168
REMARK   71  A    between atoms: _168  and  _169
REMARK   72  A    between atoms: _169  and  _170
REMARK   73  A    between atoms: _170  and  _171
REMARK   74  A    between atoms: _180  and  _182
REMARK   75  A    between atoms: _182  and  _183
REMARK   76  A    between atoms: _186  and  _188
REMARK   77  A    between atoms: _188  and  _189
REMARK   78  A    between atoms: _188  and  _191
REMARK   79  A    between atoms: _191  and  _192
REMARK   80  A    between atoms: _194  and  _196
REMARK   81  A    between atoms: _196  and  _197
REMARK   82  A    between atoms: _196  and  _199
REMARK   83  A    between atoms: _199  and  _200
REMARK   84  A    between atoms: _200  and  _201
REMARK   85  A    between atoms: _204  and  _206
REMARK   86  A    between atoms: _206  and  _207
REMARK   87  A    between atoms: _206  and  _209
REMARK   88  A    between atoms: _209  and  _210
REMARK   89  A    between atoms: _215  and  _217
REMARK   90  A    between atoms: _217  and  _218
REMARK   91  A    between atoms: _217  and  _220
REMARK   92  A    between atoms: _220  and  _221
REMARK   93  A    between atoms: _221  and  _222
REMARK   94  A    between atoms: _222  and  _223
REMARK   95  A    between atoms: _232  and  _234
REMARK   96  A    between atoms: _234  and  _235
REMARK   97  A    between atoms: _234  and  _237
REMARK   98  A    between atoms: _237  and  _238
REMARK   99  A    between atoms: _243  and  _245
REMARK  100  A    between atoms: _245  and  _246
REMARK  101  A    between atoms: _245  and  _248
REMARK  102  A    between atoms: _248  and  _249
REMARK                            x       y       z     vdW  Elec       q    Type
REMARK                         _______ _______ _______ _____ _____    ______ ____
ROOT
ATOM      1  O   HOH     1      27.772  38.510   5.927  0.00  0.00    +0.000 OA
ENDROOT
TORSDOF 0
REMARK  Name = ../refined-set-2016/4j45/4j45_pocket.pdb
REMARK  102 active torsions:
REMARK  status: ('A' for Active; 'I' for Inactive)
REMARK    1  A    between atoms: _1  and  _3
REMARK    2  A    between atoms: _3  and  _4
REMARK    3  A    between atoms: _3  and  _6
REMARK    4  A    between atoms: _6  and  _7
REMARK    5  A    between atoms: _10  and  _12
REMARK    6  A    between atoms: _12  and  _13
REMARK    7  A    between atoms: _12  and  _15
REMARK    8  A    between atoms: _15  and  _16
REMARK    9  A    between atoms: _19  and  _21
REMARK   10  A    between atoms: _21  and  _22
REMARK   11  A    between atoms: _21  and  _24
REMARK   12  A    between atoms: _24  and  _25
REMARK   13  A    between atoms: _28  and  _30
REMARK   14  A    between atoms: _30  and  _31
REMARK   15  A    between atoms: _30  and  _33
REMARK   16  A    between atoms: _33  and  _34
REMARK   17  A    between atoms: _34  and  _35
REMARK   18  A    between atoms: _40  and  _42
REMARK   19  A    between atoms: _42  and  _43
REMARK   20  A    between atoms: _42  and  _45
REMARK   21  A    between atoms: _48  and  _50
REMARK   22  A    between atoms: _50  and  _51
REMARK   23  A    between atoms: _50  and  _53
REMARK   24  A    between atoms: _53  and  _54
REMARK   25  A    between atoms: _54  and  _55
REMARK   26  A    between atoms: _60  and  _62
REMARK   27  A    between atoms: _62  and  _63
REMARK   28  A    between atoms: _65  and  _67
REMARK   29  A    between atoms: _67  and  _68
REMARK   30  A    between atoms: _70  and  _72
REMARK   31  A    between atoms: _72  and  _73
REMARK   32  A    between atoms: _72  and  _75
REMARK   33  A    between atoms: _75  and  _76
REMARK   34  A    between atoms: _76  and  _77
REMARK   35  A    between atoms: _77  and  _78
REMARK   36  A    between atoms: _78  and  _79
REMARK   37  A    between atoms: _83  and  _85
REMARK   38  A    between atoms: _85  and  _86
REMARK   39  A    between atoms: _85  and  _88
REMARK   40  A    between atoms: _88  and  _89
REMARK   41  A    between atoms: _92  and  _94
REMARK   42  A    between atoms: _94  and  _95
REMARK   43  A    between atoms: _94  and  _97
REMARK   44  A    between atoms: _97  and  _98
REMARK   45  A    between atoms: _98  and  _99
REMARK   46  A    between atoms: _99  and  _100
REMARK   47  A    between atoms: _100  and  _101
REMARK   48  A    between atoms: _105  and  _107
REMARK   49  A    between atoms: _107  and  _108
REMARK   50  A    between atoms: _107  and  _110
REMARK   51  A    between atoms: _110  and  _111
REMARK   52  A    between atoms: _116  and  _118
REMARK   53  A    between atoms: _118  and  _119
REMARK   54  A    between atoms: _118  and  _121
REMARK   55  A    between atoms: _121  and  _122
REMARK   56  A    between atoms: _132  and  _134
REMARK   57  A    between atoms: _134  and  _135
REMARK   58  A    between atoms: _134  and  _137
REMARK   59  A    between atoms: _137  and  _138
REMARK   60  A    between atoms: _138  and  _139
REMARK   61  A    between atoms: _143  and  _144
REMARK   62  A    between atoms: _149  and  _151
REMARK   63  A    between atoms: _151  and  _152
REMARK   64  A    between atoms: _154  and  _156
REMARK   65  A    between atoms: _156  and  _157
REMARK   66  A    between atoms: _156  and  _159
REMARK   67  A    between atoms: _159  and  _160
REMARK   68  A    between atoms: _163  and  _165
REMARK   69  A    between atoms: _165  and  _166
REMARK   70  A    between atoms: _165  and  _168
REMARK   71  A    between atoms: _168  and  _169
REMARK   72  A    between atoms: _169  and  _170
REMARK   73  A    between atoms: _170  and  _171
REMARK   74  A    between atoms: _180  and  _182
REMARK   75  A    between atoms: _182  and  _183
REMARK   76  A    between atoms: _186  and  _188
REMARK   77  A    between atoms: _188  and  _189
REMARK   78  A    between atoms: _188  and  _191
REMARK   79  A    between atoms: _191  and  _192
REMARK   80  A    between atoms: _194  and  _196
REMARK   81  A    between atoms: _196  and  _197
REMARK   82  A    between atoms: _196  and  _199
REMARK   83  A    between atoms: _199  and  _200
REMARK   84  A    between atoms: _200  and  _201
REMARK   85  A    between atoms: _204  and  _206
REMARK   86  A    between atoms: _206  and  _207
REMARK   87  A    between atoms: _206  and  _209
REMARK   88  A    between atoms: _209  and  _210
REMARK   89  A    between atoms: _215  and  _217
REMARK   90  A    between atoms: _217  and  _218
REMARK   91  A    between atoms: _217  and  _220
REMARK   92  A    between atoms: _220  and  _221
REMARK   93  A    between atoms: _221  and  _222
REMARK   94  A    between atoms: _222  and  _223
REMARK   95  A    between atoms: _232  and  _234
REMARK   96  A    between atoms: _234  and  _235
REMARK   97  A    between atoms: _234  and  _237
REMARK   98  A    between atoms: _237  and  _238
REMARK   99  A    between atoms: _243  and  _245
REMARK  100  A    between atoms: _245  and  _246
REMARK  101  A    between atoms: _245  and  _248
REMARK  102  A    between atoms: _248  and  _249
REMARK                            x       y       z     vdW  Elec       q    Type
REMARK                         _______ _______ _______ _____ _____    ______ ____
ROOT
ATOM      1  O   HOH     1      26.673  29.274  18.909  0.00  0.00    +0.000 OA
ENDROOT
TORSDOF 0
REMARK  Name = ../refined-set-2016/4j45/4j45_pocket.pdb
REMARK  102 active torsions:
REMARK  status: ('A' for Active; 'I' for Inactive)
REMARK    1  A    between atoms: _1  and  _3
REMARK    2  A    between atoms: _3  and  _4
REMARK    3  A    between atoms: _3  and  _6
REMARK    4  A    between atoms: _6  and  _7
REMARK    5  A    between atoms: _10  and  _12
REMARK    6  A    between atoms: _12  and  _13
REMARK    7  A    between atoms: _12  and  _15
REMARK    8  A    between atoms: _15  and  _16
REMARK    9  A    between atoms: _19  and  _21
REMARK   10  A    between atoms: _21  and  _22
REMARK   11  A    between atoms: _21  and  _24
REMARK   12  A    between atoms: _24  and  _25
REMARK   13  A    between atoms: _28  and  _30
REMARK   14  A    between atoms: _30  and  _31
REMARK   15  A    between atoms: _30  and  _33
REMARK   16  A    between atoms: _33  and  _34
REMARK   17  A    between atoms: _34  and  _35
REMARK   18  A    between atoms: _40  and  _42
REMARK   19  A    between atoms: _42  and  _43
REMARK   20  A    between atoms: _42  and  _45
REMARK   21  A    between atoms: _48  and  _50
REMARK   22  A    between atoms: _50  and  _51
REMARK   23  A    between atoms: _50  and  _53
REMARK   24  A    between atoms: _53  and  _54
REMARK   25  A    between atoms: _54  and  _55
REMARK   26  A    between atoms: _60  and  _62
REMARK   27  A    between atoms: _62  and  _63
REMARK   28  A    between atoms: _65  and  _67
REMARK   29  A    between atoms: _67  and  _68
REMARK   30  A    between atoms: _70  and  _72
REMARK   31  A    between atoms: _72  and  _73
REMARK   32  A    between atoms: _72  and  _75
REMARK   33  A    between atoms: _75  and  _76
REMARK   34  A    between atoms: _76  and  _77
REMARK   35  A    between atoms: _77  and  _78
REMARK   36  A    between atoms: _78  and  _79
REMARK   37  A    between atoms: _83  and  _85
REMARK   38  A    between atoms: _85  and  _86
REMARK   39  A    between atoms: _85  and  _88
REMARK   40  A    between atoms: _88  and  _89
REMARK   41  A    between atoms: _92  and  _94
REMARK   42  A    between atoms: _94  and  _95
REMARK   43  A    between atoms: _94  and  _97
REMARK   44  A    between atoms: _97  and  _98
REMARK   45  A    between atoms: _98  and  _99
REMARK   46  A    between atoms: _99  and  _100
REMARK   47  A    between atoms: _100  and  _101
REMARK   48  A    between atoms: _105  and  _107
REMARK   49  A    between atoms: _107  and  _108
REMARK   50  A    between atoms: _107  and  _110
REMARK   51  A    between atoms: _110  and  _111
REMARK   52  A    between atoms: _116  and  _118
REMARK   53  A    between atoms: _118  and  _119
REMARK   54  A    between atoms: _118  and  _121
REMARK   55  A    between atoms: _121  and  _122
REMARK   56  A    between atoms: _132  and  _134
REMARK   57  A    between atoms: _134  and  _135
REMARK   58  A    between atoms: _134  and  _137
REMARK   59  A    between atoms: _137  and  _138
REMARK   60  A    between atoms: _138  and  _139
REMARK   61  A    between atoms: _143  and  _144
REMARK   62  A    between atoms: _149  and  _151
REMARK   63  A    between atoms: _151  and  _152
REMARK   64  A    between atoms: _154  and  _156
REMARK   65  A    between atoms: _156  and  _157
REMARK   66  A    between atoms: _156  and  _159
REMARK   67  A    between atoms: _159  and  _160
REMARK   68  A    between atoms: _163  and  _165
REMARK   69  A    between atoms: _165  and  _166
REMARK   70  A    between atoms: _165  and  _168
REMARK   71  A    between atoms: _168  and  _169
REMARK   72  A    between atoms: _169  and  _170
REMARK   73  A    between atoms: _170  and  _171
REMARK   74  A    between atoms: _180  and  _182
REMARK   75  A    between atoms: _182  and  _183
REMARK   76  A    between atoms: _186  and  _188
REMARK   77  A    between atoms: _188  and  _189
REMARK   78  A    between atoms: _188  and  _191
REMARK   79  A    between atoms: _191  and  _192
REMARK   80  A    between atoms: _194  and  _196
REMARK   81  A    between atoms: _196  and  _197
REMARK   82  A    between atoms: _196  and  _199
REMARK   83  A    between atoms: _199  and  _200
REMARK   84  A    between atoms: _200  and  _201
REMARK   85  A    between atoms: _204  and  _206
REMARK   86  A    between atoms: _206  and  _207
REMARK   87  A    between atoms: _206  and  _209
REMARK   88  A    between atoms: _209  and  _210
REMARK   89  A    between atoms: _215  and  _217
REMARK   90  A    between atoms: _217  and  _218
REMARK   91  A    between atoms: _217  and  _220
REMARK   92  A    between atoms: _220  and  _221
REMARK   93  A    between atoms: _221  and  _222
REMARK   94  A    between atoms: _222  and  _223
REMARK   95  A    between atoms: _232  and  _234
REMARK   96  A    between atoms: _234  and  _235
REMARK   97  A    between atoms: _234  and  _237
REMARK   98  A    between atoms: _237  and  _238
REMARK   99  A    between atoms: _243  and  _245
REMARK  100  A    between atoms: _245  and  _246
REMARK  101  A    between atoms: _245  and  _248
REMARK  102  A    between atoms: _248  and  _249
REMARK                            x       y       z     vdW  Elec       q    Type
REMARK                         _______ _______ _______ _____ _____    ______ ____
ROOT
ATOM      1  O   HOH     1      27.696  44.477  10.093  0.00  0.00    +0.000 OA
ENDROOT
TORSDOF 0
REMARK  Name = ../refined-set-2016/4j45/4j45_pocket.pdb
REMARK  102 active torsions:
REMARK  status: ('A' for Active; 'I' for Inactive)
REMARK    1  A    between atoms: _1  and  _3
REMARK    2  A    between atoms: _3  and  _4
REMARK    3  A    between atoms: _3  and  _6
REMARK    4  A    between atoms: _6  and  _7
REMARK    5  A    between atoms: _10  and  _12
REMARK    6  A    between atoms: _12  and  _13
REMARK    7  A    between atoms: _12  and  _15
REMARK    8  A    between atoms: _15  and  _16
REMARK    9  A    between atoms: _19  and  _21
REMARK   10  A    between atoms: _21  and  _22
REMARK   11  A    between atoms: _21  and  _24
REMARK   12  A    between atoms: _24  and  _25
REMARK   13  A    between atoms: _28  and  _30
REMARK   14  A    between atoms: _30  and  _31
REMARK   15  A    between atoms: _30  and  _33
REMARK   16  A    between atoms: _33  and  _34
REMARK   17  A    between atoms: _34  and  _35
REMARK   18  A    between atoms: _40  and  _42
REMARK   19  A    between atoms: _42  and  _43
REMARK   20  A    between atoms: _42  and  _45
REMARK   21  A    between atoms: _48  and  _50
REMARK   22  A    between atoms: _50  and  _51
REMARK   23  A    between atoms: _50  and  _53
REMARK   24  A    between atoms: _53  and  _54
REMARK   25  A    between atoms: _54  and  _55
REMARK   26  A    between atoms: _60  and  _62
REMARK   27  A    between atoms: _62  and  _63
REMARK   28  A    between atoms: _65  and  _67
REMARK   29  A    between atoms: _67  and  _68
REMARK   30  A    between atoms: _70  and  _72
REMARK   31  A    between atoms: _72  and  _73
REMARK   32  A    between atoms: _72  and  _75
REMARK   33  A    between atoms: _75  and  _76
REMARK   34  A    between atoms: _76  and  _77
REMARK   35  A    between atoms: _77  and  _78
REMARK   36  A    between atoms: _78  and  _79
REMARK   37  A    between atoms: _83  and  _85
REMARK   38  A    between atoms: _85  and  _86
REMARK   39  A    between atoms: _85  and  _88
REMARK   40  A    between atoms: _88  and  _89
REMARK   41  A    between atoms: _92  and  _94
REMARK   42  A    between atoms: _94  and  _95
REMARK   43  A    between atoms: _94  and  _97
REMARK   44  A    between atoms: _97  and  _98
REMARK   45  A    between atoms: _98  and  _99
REMARK   46  A    between atoms: _99  and  _100
REMARK   47  A    between atoms: _100  and  _101
REMARK   48  A    between atoms: _105  and  _107
REMARK   49  A    between atoms: _107  and  _108
REMARK   50  A    between atoms: _107  and  _110
REMARK   51  A    between atoms: _110  and  _111
REMARK   52  A    between atoms: _116  and  _118
REMARK   53  A    between atoms: _118  and  _119
REMARK   54  A    between atoms: _118  and  _121
REMARK   55  A    between atoms: _121  and  _122
REMARK   56  A    between atoms: _132  and  _134
REMARK   57  A    between atoms: _134  and  _135
REMARK   58  A    between atoms: _134  and  _137
REMARK   59  A    between atoms: _137  and  _138
REMARK   60  A    between atoms: _138  and  _139
REMARK   61  A    between atoms: _143  and  _144
REMARK   62  A    between atoms: _149  and  _151
REMARK   63  A    between atoms: _151  and  _152
REMARK   64  A    between atoms: _154  and  _156
REMARK   65  A    between atoms: _156  and  _157
REMARK   66  A    between atoms: _156  and  _159
REMARK   67  A    between atoms: _159  and  _160
REMARK   68  A    between atoms: _163  and  _165
REMARK   69  A    between atoms: _165  and  _166
REMARK   70  A    between atoms: _165  and  _168
REMARK   71  A    between atoms: _168  and  _169
REMARK   72  A    between atoms: _169  and  _170
REMARK   73  A    between atoms: _170  and  _171
REMARK   74  A    between atoms: _180  and  _182
REMARK   75  A    between atoms: _182  and  _183
REMARK   76  A    between atoms: _186  and  _188
REMARK   77  A    between atoms: _188  and  _189
REMARK   78  A    between atoms: _188  and  _191
REMARK   79  A    between atoms: _191  and  _192
REMARK   80  A    between atoms: _194  and  _196
REMARK   81  A    between atoms: _196  and  _197
REMARK   82  A    between atoms: _196  and  _199
REMARK   83  A    between atoms: _199  and  _200
REMARK   84  A    between atoms: _200  and  _201
REMARK   85  A    between atoms: _204  and  _206
REMARK   86  A    between atoms: _206  and  _207
REMARK   87  A    between atoms: _206  and  _209
REMARK   88  A    between atoms: _209  and  _210
REMARK   89  A    between atoms: _215  and  _217
REMARK   90  A    between atoms: _217  and  _218
REMARK   91  A    between atoms: _217  and  _220
REMARK   92  A    between atoms: _220  and  _221
REMARK   93  A    between atoms: _221  and  _222
REMARK   94  A    between atoms: _222  and  _223
REMARK   95  A    between atoms: _232  and  _234
REMARK   96  A    between atoms: _234  and  _235
REMARK   97  A    between atoms: _234  and  _237
REMARK   98  A    between atoms: _237  and  _238
REMARK   99  A    between atoms: _243  and  _245
REMARK  100  A    between atoms: _245  and  _246
REMARK  101  A    between atoms: _245  and  _248
REMARK  102  A    between atoms: _248  and  _249
REMARK                            x       y       z     vdW  Elec       q    Type
REMARK                         _______ _______ _______ _____ _____    ______ ____
ROOT
ATOM      1  O   HOH     1      30.077  43.572   8.759  0.00  0.00    +0.000 OA
ENDROOT
TORSDOF 0
REMARK  Name = ../refined-set-2016/4j45/4j45_pocket.pdb
REMARK  102 active torsions:
REMARK  status: ('A' for Active; 'I' for Inactive)
REMARK    1  A    between atoms: _1  and  _3
REMARK    2  A    between atoms: _3  and  _4
REMARK    3  A    between atoms: _3  and  _6
REMARK    4  A    between atoms: _6  and  _7
REMARK    5  A    between atoms: _10  and  _12
REMARK    6  A    between atoms: _12  and  _13
REMARK    7  A    between atoms: _12  and  _15
REMARK    8  A    between atoms: _15  and  _16
REMARK    9  A    between atoms: _19  and  _21
REMARK   10  A    between atoms: _21  and  _22
REMARK   11  A    between atoms: _21  and  _24
REMARK   12  A    between atoms: _24  and  _25
REMARK   13  A    between atoms: _28  and  _30
REMARK   14  A    between atoms: _30  and  _31
REMARK   15  A    between atoms: _30  and  _33
REMARK   16  A    between atoms: _33  and  _34
REMARK   17  A    between atoms: _34  and  _35
REMARK   18  A    between atoms: _40  and  _42
REMARK   19  A    between atoms: _42  and  _43
REMARK   20  A    between atoms: _42  and  _45
REMARK   21  A    between atoms: _48  and  _50
REMARK   22  A    between atoms: _50  and  _51
REMARK   23  A    between atoms: _50  and  _53
REMARK   24  A    between atoms: _53  and  _54
REMARK   25  A    between atoms: _54  and  _55
REMARK   26  A    between atoms: _60  and  _62
REMARK   27  A    between atoms: _62  and  _63
REMARK   28  A    between atoms: _65  and  _67
REMARK   29  A    between atoms: _67  and  _68
REMARK   30  A    between atoms: _70  and  _72
REMARK   31  A    between atoms: _72  and  _73
REMARK   32  A    between atoms: _72  and  _75
REMARK   33  A    between atoms: _75  and  _76
REMARK   34  A    between atoms: _76  and  _77
REMARK   35  A    between atoms: _77  and  _78
REMARK   36  A    between atoms: _78  and  _79
REMARK   37  A    between atoms: _83  and  _85
REMARK   38  A    between atoms: _85  and  _86
REMARK   39  A    between atoms: _85  and  _88
REMARK   40  A    between atoms: _88  and  _89
REMARK   41  A    between atoms: _92  and  _94
REMARK   42  A    between atoms: _94  and  _95
REMARK   43  A    between atoms: _94  and  _97
REMARK   44  A    between atoms: _97  and  _98
REMARK   45  A    between atoms: _98  and  _99
REMARK   46  A    between atoms: _99  and  _100
REMARK   47  A    between atoms: _100  and  _101
REMARK   48  A    between atoms: _105  and  _107
REMARK   49  A    between atoms: _107  and  _108
REMARK   50  A    between atoms: _107  and  _110
REMARK   51  A    between atoms: _110  and  _111
REMARK   52  A    between atoms: _116  and  _118
REMARK   53  A    between atoms: _118  and  _119
REMARK   54  A    between atoms: _118  and  _121
REMARK   55  A    between atoms: _121  and  _122
REMARK   56  A    between atoms: _132  and  _134
REMARK   57  A    between atoms: _134  and  _135
REMARK   58  A    between atoms: _134  and  _137
REMARK   59  A    between atoms: _137  and  _138
REMARK   60  A    between atoms: _138  and  _139
REMARK   61  A    between atoms: _143  and  _144
REMARK   62  A    between atoms: _149  and  _151
REMARK   63  A    between atoms: _151  and  _152
REMARK   64  A    between atoms: _154  and  _156
REMARK   65  A    between atoms: _156  and  _157
REMARK   66  A    between atoms: _156  and  _159
REMARK   67  A    between atoms: _159  and  _160
REMARK   68  A    between atoms: _163  and  _165
REMARK   69  A    between atoms: _165  and  _166
REMARK   70  A    between atoms: _165  and  _168
REMARK   71  A    between atoms: _168  and  _169
REMARK   72  A    between atoms: _169  and  _170
REMARK   73  A    between atoms: _170  and  _171
REMARK   74  A    between atoms: _180  and  _182
REMARK   75  A    between atoms: _182  and  _183
REMARK   76  A    between atoms: _186  and  _188
REMARK   77  A    between atoms: _188  and  _189
REMARK   78  A    between atoms: _188  and  _191
REMARK   79  A    between atoms: _191  and  _192
REMARK   80  A    between atoms: _194  and  _196
REMARK   81  A    between atoms: _196  and  _197
REMARK   82  A    between atoms: _196  and  _199
REMARK   83  A    between atoms: _199  and  _200
REMARK   84  A    between atoms: _200  and  _201
REMARK   85  A    between atoms: _204  and  _206
REMARK   86  A    between atoms: _206  and  _207
REMARK   87  A    between atoms: _206  and  _209
REMARK   88  A    between atoms: _209  and  _210
REMARK   89  A    between atoms: _215  and  _217
REMARK   90  A    between atoms: _217  and  _218
REMARK   91  A    between atoms: _217  and  _220
REMARK   92  A    between atoms: _220  and  _221
REMARK   93  A    between atoms: _221  and  _222
REMARK   94  A    between atoms: _222  and  _223
REMARK   95  A    between atoms: _232  and  _234
REMARK   96  A    between atoms: _234  and  _235
REMARK   97  A    between atoms: _234  and  _237
REMARK   98  A    between atoms: _237  and  _238
REMARK   99  A    between atoms: _243  and  _245
REMARK  100  A    between atoms: _245  and  _246
REMARK  101  A    between atoms: _245  and  _248
REMARK  102  A    between atoms: _248  and  _249
REMARK                            x       y       z     vdW  Elec       q    Type
REMARK                         _______ _______ _______ _____ _____    ______ ____
ROOT
ATOM      1  O   HOH     1      25.056  38.304   4.105  0.00  0.00    +0.000 OA
ENDROOT
TORSDOF 0
REMARK  Name = ../refined-set-2016/4j45/4j45_pocket.pdb
REMARK  102 active torsions:
REMARK  status: ('A' for Active; 'I' for Inactive)
REMARK    1  A    between atoms: _1  and  _3
REMARK    2  A    between atoms: _3  and  _4
REMARK    3  A    between atoms: _3  and  _6
REMARK    4  A    between atoms: _6  and  _7
REMARK    5  A    between atoms: _10  and  _12
REMARK    6  A    between atoms: _12  and  _13
REMARK    7  A    between atoms: _12  and  _15
REMARK    8  A    between atoms: _15  and  _16
REMARK    9  A    between atoms: _19  and  _21
REMARK   10  A    between atoms: _21  and  _22
REMARK   11  A    between atoms: _21  and  _24
REMARK   12  A    between atoms: _24  and  _25
REMARK   13  A    between atoms: _28  and  _30
REMARK   14  A    between atoms: _30  and  _31
REMARK   15  A    between atoms: _30  and  _33
REMARK   16  A    between atoms: _33  and  _34
REMARK   17  A    between atoms: _34  and  _35
REMARK   18  A    between atoms: _40  and  _42
REMARK   19  A    between atoms: _42  and  _43
REMARK   20  A    between atoms: _42  and  _45
REMARK   21  A    between atoms: _48  and  _50
REMARK   22  A    between atoms: _50  and  _51
REMARK   23  A    between atoms: _50  and  _53
REMARK   24  A    between atoms: _53  and  _54
REMARK   25  A    between atoms: _54  and  _55
REMARK   26  A    between atoms: _60  and  _62
REMARK   27  A    between atoms: _62  and  _63
REMARK   28  A    between atoms: _65  and  _67
REMARK   29  A    between atoms: _67  and  _68
REMARK   30  A    between atoms: _70  and  _72
REMARK   31  A    between atoms: _72  and  _73
REMARK   32  A    between atoms: _72  and  _75
REMARK   33  A    between atoms: _75  and  _76
REMARK   34  A    between atoms: _76  and  _77
REMARK   35  A    between atoms: _77  and  _78
REMARK   36  A    between atoms: _78  and  _79
REMARK   37  A    between atoms: _83  and  _85
REMARK   38  A    between atoms: _85  and  _86
REMARK   39  A    between atoms: _85  and  _88
REMARK   40  A    between atoms: _88  and  _89
REMARK   41  A    between atoms: _92  and  _94
REMARK   42  A    between atoms: _94  and  _95
REMARK   43  A    between atoms: _94  and  _97
REMARK   44  A    between atoms: _97  and  _98
REMARK   45  A    between atoms: _98  and  _99
REMARK   46  A    between atoms: _99  and  _100
REMARK   47  A    between atoms: _100  and  _101
REMARK   48  A    between atoms: _105  and  _107
REMARK   49  A    between atoms: _107  and  _108
REMARK   50  A    between atoms: _107  and  _110
REMARK   51  A    between atoms: _110  and  _111
REMARK   52  A    between atoms: _116  and  _118
REMARK   53  A    between atoms: _118  and  _119
REMARK   54  A    between atoms: _118  and  _121
REMARK   55  A    between atoms: _121  and  _122
REMARK   56  A    between atoms: _132  and  _134
REMARK   57  A    between atoms: _134  and  _135
REMARK   58  A    between atoms: _134  and  _137
REMARK   59  A    between atoms: _137  and  _138
REMARK   60  A    between atoms: _138  and  _139
REMARK   61  A    between atoms: _143  and  _144
REMARK   62  A    between atoms: _149  and  _151
REMARK   63  A    between atoms: _151  and  _152
REMARK   64  A    between atoms: _154  and  _156
REMARK   65  A    between atoms: _156  and  _157
REMARK   66  A    between atoms: _156  and  _159
REMARK   67  A    between atoms: _159  and  _160
REMARK   68  A    between atoms: _163  and  _165
REMARK   69  A    between atoms: _165  and  _166
REMARK   70  A    between atoms: _165  and  _168
REMARK   71  A    between atoms: _168  and  _169
REMARK   72  A    between atoms: _169  and  _170
REMARK   73  A    between atoms: _170  and  _171
REMARK   74  A    between atoms: _180  and  _182
REMARK   75  A    between atoms: _182  and  _183
REMARK   76  A    between atoms: _186  and  _188
REMARK   77  A    between atoms: _188  and  _189
REMARK   78  A    between atoms: _188  and  _191
REMARK   79  A    between atoms: _191  and  _192
REMARK   80  A    between atoms: _194  and  _196
REMARK   81  A    between atoms: _196  and  _197
REMARK   82  A    between atoms: _196  and  _199
REMARK   83  A    between atoms: _199  and  _200
REMARK   84  A    between atoms: _200  and  _201
REMARK   85  A    between atoms: _204  and  _206
REMARK   86  A    between atoms: _206  and  _207
REMARK   87  A    between atoms: _206  and  _209
REMARK   88  A    between atoms: _209  and  _210
REMARK   89  A    between atoms: _215  and  _217
REMARK   90  A    between atoms: _217  and  _218
REMARK   91  A    between atoms: _217  and  _220
REMARK   92  A    between atoms: _220  and  _221
REMARK   93  A    between atoms: _221  and  _222
REMARK   94  A    between atoms: _222  and  _223
REMARK   95  A    between atoms: _232  and  _234
REMARK   96  A    between atoms: _234  and  _235
REMARK   97  A    between atoms: _234  and  _237
REMARK   98  A    between atoms: _237  and  _238
REMARK   99  A    between atoms: _243  and  _245
REMARK  100  A    between atoms: _245  and  _246
REMARK  101  A    between atoms: _245  and  _248
REMARK  102  A    between atoms: _248  and  _249
REMARK                            x       y       z     vdW  Elec       q    Type
REMARK                         _______ _______ _______ _____ _____    ______ ____
ROOT
ATOM      1  O   HOH     1      27.690  28.818  22.089  0.00  0.00    +0.000 OA
ENDROOT
TORSDOF 0
REMARK  Name = ../refined-set-2016/4j45/4j45_pocket.pdb
REMARK  102 active torsions:
REMARK  status: ('A' for Active; 'I' for Inactive)
REMARK    1  A    between atoms: _1  and  _3
REMARK    2  A    between atoms: _3  and  _4
REMARK    3  A    between atoms: _3  and  _6
REMARK    4  A    between atoms: _6  and  _7
REMARK    5  A    between atoms: _10  and  _12
REMARK    6  A    between atoms: _12  and  _13
REMARK    7  A    between atoms: _12  and  _15
REMARK    8  A    between atoms: _15  and  _16
REMARK    9  A    between atoms: _19  and  _21
REMARK   10  A    between atoms: _21  and  _22
REMARK   11  A    between atoms: _21  and  _24
REMARK   12  A    between atoms: _24  and  _25
REMARK   13  A    between atoms: _28  and  _30
REMARK   14  A    between atoms: _30  and  _31
REMARK   15  A    between atoms: _30  and  _33
REMARK   16  A    between atoms: _33  and  _34
REMARK   17  A    between atoms: _34  and  _35
REMARK   18  A    between atoms: _40  and  _42
REMARK   19  A    between atoms: _42  and  _43
REMARK   20  A    between atoms: _42  and  _45
REMARK   21  A    between atoms: _48  and  _50
REMARK   22  A    between atoms: _50  and  _51
REMARK   23  A    between atoms: _50  and  _53
REMARK   24  A    between atoms: _53  and  _54
REMARK   25  A    between atoms: _54  and  _55
REMARK   26  A    between atoms: _60  and  _62
REMARK   27  A    between atoms: _62  and  _63
REMARK   28  A    between atoms: _65  and  _67
REMARK   29  A    between atoms: _67  and  _68
REMARK   30  A    between atoms: _70  and  _72
REMARK   31  A    between atoms: _72  and  _73
REMARK   32  A    between atoms: _72  and  _75
REMARK   33  A    between atoms: _75  and  _76
REMARK   34  A    between atoms: _76  and  _77
REMARK   35  A    between atoms: _77  and  _78
REMARK   36  A    between atoms: _78  and  _79
REMARK   37  A    between atoms: _83  and  _85
REMARK   38  A    between atoms: _85  and  _86
REMARK   39  A    between atoms: _85  and  _88
REMARK   40  A    between atoms: _88  and  _89
REMARK   41  A    between atoms: _92  and  _94
REMARK   42  A    between atoms: _94  and  _95
REMARK   43  A    between atoms: _94  and  _97
REMARK   44  A    between atoms: _97  and  _98
REMARK   45  A    between atoms: _98  and  _99
REMARK   46  A    between atoms: _99  and  _100
REMARK   47  A    between atoms: _100  and  _101
REMARK   48  A    between atoms: _105  and  _107
REMARK   49  A    between atoms: _107  and  _108
REMARK   50  A    between atoms: _107  and  _110
REMARK   51  A    between atoms: _110  and  _111
REMARK   52  A    between atoms: _116  and  _118
REMARK   53  A    between atoms: _118  and  _119
REMARK   54  A    between atoms: _118  and  _121
REMARK   55  A    between atoms: _121  and  _122
REMARK   56  A    between atoms: _132  and  _134
REMARK   57  A    between atoms: _134  and  _135
REMARK   58  A    between atoms: _134  and  _137
REMARK   59  A    between atoms: _137  and  _138
REMARK   60  A    between atoms: _138  and  _139
REMARK   61  A    between atoms: _143  and  _144
REMARK   62  A    between atoms: _149  and  _151
REMARK   63  A    between atoms: _151  and  _152
REMARK   64  A    between atoms: _154  and  _156
REMARK   65  A    between atoms: _156  and  _157
REMARK   66  A    between atoms: _156  and  _159
REMARK   67  A    between atoms: _159  and  _160
REMARK   68  A    between atoms: _163  and  _165
REMARK   69  A    between atoms: _165  and  _166
REMARK   70  A    between atoms: _165  and  _168
REMARK   71  A    between atoms: _168  and  _169
REMARK   72  A    between atoms: _169  and  _170
REMARK   73  A    between atoms: _170  and  _171
REMARK   74  A    between atoms: _180  and  _182
REMARK   75  A    between atoms: _182  and  _183
REMARK   76  A    between atoms: _186  and  _188
REMARK   77  A    between atoms: _188  and  _189
REMARK   78  A    between atoms: _188  and  _191
REMARK   79  A    between atoms: _191  and  _192
REMARK   80  A    between atoms: _194  and  _196
REMARK   81  A    between atoms: _196  and  _197
REMARK   82  A    between atoms: _196  and  _199
REMARK   83  A    between atoms: _199  and  _200
REMARK   84  A    between atoms: _200  and  _201
REMARK   85  A    between atoms: _204  and  _206
REMARK   86  A    between atoms: _206  and  _207
REMARK   87  A    between atoms: _206  and  _209
REMARK   88  A    between atoms: _209  and  _210
REMARK   89  A    between atoms: _215  and  _217
REMARK   90  A    between atoms: _217  and  _218
REMARK   91  A    between atoms: _217  and  _220
REMARK   92  A    between atoms: _220  and  _221
REMARK   93  A    between atoms: _221  and  _222
REMARK   94  A    between atoms: _222  and  _223
REMARK   95  A    between atoms: _232  and  _234
REMARK   96  A    between atoms: _234  and  _235
REMARK   97  A    between atoms: _234  and  _237
REMARK   98  A    between atoms: _237  and  _238
REMARK   99  A    between atoms: _243  and  _245
REMARK  100  A    between atoms: _245  and  _246
REMARK  101  A    between atoms: _245  and  _248
REMARK  102  A    between atoms: _248  and  _249
REMARK                            x       y       z     vdW  Elec       q    Type
REMARK                         _______ _______ _______ _____ _____    ______ ____
ROOT
ATOM      1  O   HOH     1      28.857  39.810   7.757  0.00  0.00    +0.000 OA
ENDROOT
TORSDOF 0
REMARK  Name = ../refined-set-2016/4j45/4j45_pocket.pdb
REMARK  102 active torsions:
REMARK  status: ('A' for Active; 'I' for Inactive)
REMARK    1  A    between atoms: _1  and  _3
REMARK    2  A    between atoms: _3  and  _4
REMARK    3  A    between atoms: _3  and  _6
REMARK    4  A    between atoms: _6  and  _7
REMARK    5  A    between atoms: _10  and  _12
REMARK    6  A    between atoms: _12  and  _13
REMARK    7  A    between atoms: _12  and  _15
REMARK    8  A    between atoms: _15  and  _16
REMARK    9  A    between atoms: _19  and  _21
REMARK   10  A    between atoms: _21  and  _22
REMARK   11  A    between atoms: _21  and  _24
REMARK   12  A    between atoms: _24  and  _25
REMARK   13  A    between atoms: _28  and  _30
REMARK   14  A    between atoms: _30  and  _31
REMARK   15  A    between atoms: _30  and  _33
REMARK   16  A    between atoms: _33  and  _34
REMARK   17  A    between atoms: _34  and  _35
REMARK   18  A    between atoms: _40  and  _42
REMARK   19  A    between atoms: _42  and  _43
REMARK   20  A    between atoms: _42  and  _45
REMARK   21  A    between atoms: _48  and  _50
REMARK   22  A    between atoms: _50  and  _51
REMARK   23  A    between atoms: _50  and  _53
REMARK   24  A    between atoms: _53  and  _54
REMARK   25  A    between atoms: _54  and  _55
REMARK   26  A    between atoms: _60  and  _62
REMARK   27  A    between atoms: _62  and  _63
REMARK   28  A    between atoms: _65  and  _67
REMARK   29  A    between atoms: _67  and  _68
REMARK   30  A    between atoms: _70  and  _72
REMARK   31  A    between atoms: _72  and  _73
REMARK   32  A    between atoms: _72  and  _75
REMARK   33  A    between atoms: _75  and  _76
REMARK   34  A    between atoms: _76  and  _77
REMARK   35  A    between atoms: _77  and  _78
REMARK   36  A    between atoms: _78  and  _79
REMARK   37  A    between atoms: _83  and  _85
REMARK   38  A    between atoms: _85  and  _86
REMARK   39  A    between atoms: _85  and  _88
REMARK   40  A    between atoms: _88  and  _89
REMARK   41  A    between atoms: _92  and  _94
REMARK   42  A    between atoms: _94  and  _95
REMARK   43  A    between atoms: _94  and  _97
REMARK   44  A    between atoms: _97  and  _98
REMARK   45  A    between atoms: _98  and  _99
REMARK   46  A    between atoms: _99  and  _100
REMARK   47  A    between atoms: _100  and  _101
REMARK   48  A    between atoms: _105  and  _107
REMARK   49  A    between atoms: _107  and  _108
REMARK   50  A    between atoms: _107  and  _110
REMARK   51  A    between atoms: _110  and  _111
REMARK   52  A    between atoms: _116  and  _118
REMARK   53  A    between atoms: _118  and  _119
REMARK   54  A    between atoms: _118  and  _121
REMARK   55  A    between atoms: _121  and  _122
REMARK   56  A    between atoms: _132  and  _134
REMARK   57  A    between atoms: _134  and  _135
REMARK   58  A    between atoms: _134  and  _137
REMARK   59  A    between atoms: _137  and  _138
REMARK   60  A    between atoms: _138  and  _139
REMARK   61  A    between atoms: _143  and  _144
REMARK   62  A    between atoms: _149  and  _151
REMARK   63  A    between atoms: _151  and  _152
REMARK   64  A    between atoms: _154  and  _156
REMARK   65  A    between atoms: _156  and  _157
REMARK   66  A    between atoms: _156  and  _159
REMARK   67  A    between atoms: _159  and  _160
REMARK   68  A    between atoms: _163  and  _165
REMARK   69  A    between atoms: _165  and  _166
REMARK   70  A    between atoms: _165  and  _168
REMARK   71  A    between atoms: _168  and  _169
REMARK   72  A    between atoms: _169  and  _170
REMARK   73  A    between atoms: _170  and  _171
REMARK   74  A    between atoms: _180  and  _182
REMARK   75  A    between atoms: _182  and  _183
REMARK   76  A    between atoms: _186  and  _188
REMARK   77  A    between atoms: _188  and  _189
REMARK   78  A    between atoms: _188  and  _191
REMARK   79  A    between atoms: _191  and  _192
REMARK   80  A    between atoms: _194  and  _196
REMARK   81  A    between atoms: _196  and  _197
REMARK   82  A    between atoms: _196  and  _199
REMARK   83  A    between atoms: _199  and  _200
REMARK   84  A    between atoms: _200  and  _201
REMARK   85  A    between atoms: _204  and  _206
REMARK   86  A    between atoms: _206  and  _207
REMARK   87  A    between atoms: _206  and  _209
REMARK   88  A    between atoms: _209  and  _210
REMARK   89  A    between atoms: _215  and  _217
REMARK   90  A    between atoms: _217  and  _218
REMARK   91  A    between atoms: _217  and  _220
REMARK   92  A    between atoms: _220  and  _221
REMARK   93  A    between atoms: _221  and  _222
REMARK   94  A    between atoms: _222  and  _223
REMARK   95  A    between atoms: _232  and  _234
REMARK   96  A    between atoms: _234  and  _235
REMARK   97  A    between atoms: _234  and  _237
REMARK   98  A    between atoms: _237  and  _238
REMARK   99  A    between atoms: _243  and  _245
REMARK  100  A    between atoms: _245  and  _246
REMARK  101  A    between atoms: _245  and  _248
REMARK  102  A    between atoms: _248  and  _249
REMARK                            x       y       z     vdW  Elec       q    Type
REMARK                         _______ _______ _______ _____ _____    ______ ____
ROOT
ATOM      1  O   HOH     1      28.531  42.455  16.702  0.00  0.00    +0.000 OA
ENDROOT
TORSDOF 0
REMARK  Name = ../refined-set-2016/4j45/4j45_pocket.pdb
REMARK  102 active torsions:
REMARK  status: ('A' for Active; 'I' for Inactive)
REMARK    1  A    between atoms: _1  and  _3
REMARK    2  A    between atoms: _3  and  _4
REMARK    3  A    between atoms: _3  and  _6
REMARK    4  A    between atoms: _6  and  _7
REMARK    5  A    between atoms: _10  and  _12
REMARK    6  A    between atoms: _12  and  _13
REMARK    7  A    between atoms: _12  and  _15
REMARK    8  A    between atoms: _15  and  _16
REMARK    9  A    between atoms: _19  and  _21
REMARK   10  A    between atoms: _21  and  _22
REMARK   11  A    between atoms: _21  and  _24
REMARK   12  A    between atoms: _24  and  _25
REMARK   13  A    between atoms: _28  and  _30
REMARK   14  A    between atoms: _30  and  _31
REMARK   15  A    between atoms: _30  and  _33
REMARK   16  A    between atoms: _33  and  _34
REMARK   17  A    between atoms: _34  and  _35
REMARK   18  A    between atoms: _40  and  _42
REMARK   19  A    between atoms: _42  and  _43
REMARK   20  A    between atoms: _42  and  _45
REMARK   21  A    between atoms: _48  and  _50
REMARK   22  A    between atoms: _50  and  _51
REMARK   23  A    between atoms: _50  and  _53
REMARK   24  A    between atoms: _53  and  _54
REMARK   25  A    between atoms: _54  and  _55
REMARK   26  A    between atoms: _60  and  _62
REMARK   27  A    between atoms: _62  and  _63
REMARK   28  A    between atoms: _65  and  _67
REMARK   29  A    between atoms: _67  and  _68
REMARK   30  A    between atoms: _70  and  _72
REMARK   31  A    between atoms: _72  and  _73
REMARK   32  A    between atoms: _72  and  _75
REMARK   33  A    between atoms: _75  and  _76
REMARK   34  A    between atoms: _76  and  _77
REMARK   35  A    between atoms: _77  and  _78
REMARK   36  A    between atoms: _78  and  _79
REMARK   37  A    between atoms: _83  and  _85
REMARK   38  A    between atoms: _85  and  _86
REMARK   39  A    between atoms: _85  and  _88
REMARK   40  A    between atoms: _88  and  _89
REMARK   41  A    between atoms: _92  and  _94
REMARK   42  A    between atoms: _94  and  _95
REMARK   43  A    between atoms: _94  and  _97
REMARK   44  A    between atoms: _97  and  _98
REMARK   45  A    between atoms: _98  and  _99
REMARK   46  A    between atoms: _99  and  _100
REMARK   47  A    between atoms: _100  and  _101
REMARK   48  A    between atoms: _105  and  _107
REMARK   49  A    between atoms: _107  and  _108
REMARK   50  A    between atoms: _107  and  _110
REMARK   51  A    between atoms: _110  and  _111
REMARK   52  A    between atoms: _116  and  _118
REMARK   53  A    between atoms: _118  and  _119
REMARK   54  A    between atoms: _118  and  _121
REMARK   55  A    between atoms: _121  and  _122
REMARK   56  A    between atoms: _132  and  _134
REMARK   57  A    between atoms: _134  and  _135
REMARK   58  A    between atoms: _134  and  _137
REMARK   59  A    between atoms: _137  and  _138
REMARK   60  A    between atoms: _138  and  _139
REMARK   61  A    between atoms: _143  and  _144
REMARK   62  A    between atoms: _149  and  _151
REMARK   63  A    between atoms: _151  and  _152
REMARK   64  A    between atoms: _154  and  _156
REMARK   65  A    between atoms: _156  and  _157
REMARK   66  A    between atoms: _156  and  _159
REMARK   67  A    between atoms: _159  and  _160
REMARK   68  A    between atoms: _163  and  _165
REMARK   69  A    between atoms: _165  and  _166
REMARK   70  A    between atoms: _165  and  _168
REMARK   71  A    between atoms: _168  and  _169
REMARK   72  A    between atoms: _169  and  _170
REMARK   73  A    between atoms: _170  and  _171
REMARK   74  A    between atoms: _180  and  _182
REMARK   75  A    between atoms: _182  and  _183
REMARK   76  A    between atoms: _186  and  _188
REMARK   77  A    between atoms: _188  and  _189
REMARK   78  A    between atoms: _188  and  _191
REMARK   79  A    between atoms: _191  and  _192
REMARK   80  A    between atoms: _194  and  _196
REMARK   81  A    between atoms: _196  and  _197
REMARK   82  A    between atoms: _196  and  _199
REMARK   83  A    between atoms: _199  and  _200
REMARK   84  A    between atoms: _200  and  _201
REMARK   85  A    between atoms: _204  and  _206
REMARK   86  A    between atoms: _206  and  _207
REMARK   87  A    between atoms: _206  and  _209
REMARK   88  A    between atoms: _209  and  _210
REMARK   89  A    between atoms: _215  and  _217
REMARK   90  A    between atoms: _217  and  _218
REMARK   91  A    between atoms: _217  and  _220
REMARK   92  A    between atoms: _220  and  _221
REMARK   93  A    between atoms: _221  and  _222
REMARK   94  A    between atoms: _222  and  _223
REMARK   95  A    between atoms: _232  and  _234
REMARK   96  A    between atoms: _234  and  _235
REMARK   97  A    between atoms: _234  and  _237
REMARK   98  A    between atoms: _237  and  _238
REMARK   99  A    between atoms: _243  and  _245
REMARK  100  A    between atoms: _245  and  _246
REMARK  101  A    between atoms: _245  and  _248
REMARK  102  A    between atoms: _248  and  _249
REMARK                            x       y       z     vdW  Elec       q    Type
REMARK                         _______ _______ _______ _____ _____    ______ ____
ROOT
ATOM      1  O   HOH     1      29.231  40.570  18.739  0.00  0.00    +0.000 OA
ENDROOT
TORSDOF 0
REMARK  Name = ../refined-set-2016/4j45/4j45_pocket.pdb
REMARK  102 active torsions:
REMARK  status: ('A' for Active; 'I' for Inactive)
REMARK    1  A    between atoms: _1  and  _3
REMARK    2  A    between atoms: _3  and  _4
REMARK    3  A    between atoms: _3  and  _6
REMARK    4  A    between atoms: _6  and  _7
REMARK    5  A    between atoms: _10  and  _12
REMARK    6  A    between atoms: _12  and  _13
REMARK    7  A    between atoms: _12  and  _15
REMARK    8  A    between atoms: _15  and  _16
REMARK    9  A    between atoms: _19  and  _21
REMARK   10  A    between atoms: _21  and  _22
REMARK   11  A    between atoms: _21  and  _24
REMARK   12  A    between atoms: _24  and  _25
REMARK   13  A    between atoms: _28  and  _30
REMARK   14  A    between atoms: _30  and  _31
REMARK   15  A    between atoms: _30  and  _33
REMARK   16  A    between atoms: _33  and  _34
REMARK   17  A    between atoms: _34  and  _35
REMARK   18  A    between atoms: _40  and  _42
REMARK   19  A    between atoms: _42  and  _43
REMARK   20  A    between atoms: _42  and  _45
REMARK   21  A    between atoms: _48  and  _50
REMARK   22  A    between atoms: _50  and  _51
REMARK   23  A    between atoms: _50  and  _53
REMARK   24  A    between atoms: _53  and  _54
REMARK   25  A    between atoms: _54  and  _55
REMARK   26  A    between atoms: _60  and  _62
REMARK   27  A    between atoms: _62  and  _63
REMARK   28  A    between atoms: _65  and  _67
REMARK   29  A    between atoms: _67  and  _68
REMARK   30  A    between atoms: _70  and  _72
REMARK   31  A    between atoms: _72  and  _73
REMARK   32  A    between atoms: _72  and  _75
REMARK   33  A    between atoms: _75  and  _76
REMARK   34  A    between atoms: _76  and  _77
REMARK   35  A    between atoms: _77  and  _78
REMARK   36  A    between atoms: _78  and  _79
REMARK   37  A    between atoms: _83  and  _85
REMARK   38  A    between atoms: _85  and  _86
REMARK   39  A    between atoms: _85  and  _88
REMARK   40  A    between atoms: _88  and  _89
REMARK   41  A    between atoms: _92  and  _94
REMARK   42  A    between atoms: _94  and  _95
REMARK   43  A    between atoms: _94  and  _97
REMARK   44  A    between atoms: _97  and  _98
REMARK   45  A    between atoms: _98  and  _99
REMARK   46  A    between atoms: _99  and  _100
REMARK   47  A    between atoms: _100  and  _101
REMARK   48  A    between atoms: _105  and  _107
REMARK   49  A    between atoms: _107  and  _108
REMARK   50  A    between atoms: _107  and  _110
REMARK   51  A    between atoms: _110  and  _111
REMARK   52  A    between atoms: _116  and  _118
REMARK   53  A    between atoms: _118  and  _119
REMARK   54  A    between atoms: _118  and  _121
REMARK   55  A    between atoms: _121  and  _122
REMARK   56  A    between atoms: _132  and  _134
REMARK   57  A    between atoms: _134  and  _135
REMARK   58  A    between atoms: _134  and  _137
REMARK   59  A    between atoms: _137  and  _138
REMARK   60  A    between atoms: _138  and  _139
REMARK   61  A    between atoms: _143  and  _144
REMARK   62  A    between atoms: _149  and  _151
REMARK   63  A    between atoms: _151  and  _152
REMARK   64  A    between atoms: _154  and  _156
REMARK   65  A    between atoms: _156  and  _157
REMARK   66  A    between atoms: _156  and  _159
REMARK   67  A    between atoms: _159  and  _160
REMARK   68  A    between atoms: _163  and  _165
REMARK   69  A    between atoms: _165  and  _166
REMARK   70  A    between atoms: _165  and  _168
REMARK   71  A    between atoms: _168  and  _169
REMARK   72  A    between atoms: _169  and  _170
REMARK   73  A    between atoms: _170  and  _171
REMARK   74  A    between atoms: _180  and  _182
REMARK   75  A    between atoms: _182  and  _183
REMARK   76  A    between atoms: _186  and  _188
REMARK   77  A    between atoms: _188  and  _189
REMARK   78  A    between atoms: _188  and  _191
REMARK   79  A    between atoms: _191  and  _192
REMARK   80  A    between atoms: _194  and  _196
REMARK   81  A    between atoms: _196  and  _197
REMARK   82  A    between atoms: _196  and  _199
REMARK   83  A    between atoms: _199  and  _200
REMARK   84  A    between atoms: _200  and  _201
REMARK   85  A    between atoms: _204  and  _206
REMARK   86  A    between atoms: _206  and  _207
REMARK   87  A    between atoms: _206  and  _209
REMARK   88  A    between atoms: _209  and  _210
REMARK   89  A    between atoms: _215  and  _217
REMARK   90  A    between atoms: _217  and  _218
REMARK   91  A    between atoms: _217  and  _220
REMARK   92  A    between atoms: _220  and  _221
REMARK   93  A    between atoms: _221  and  _222
REMARK   94  A    between atoms: _222  and  _223
REMARK   95  A    between atoms: _232  and  _234
REMARK   96  A    between atoms: _234  and  _235
REMARK   97  A    between atoms: _234  and  _237
REMARK   98  A    between atoms: _237  and  _238
REMARK   99  A    between atoms: _243  and  _245
REMARK  100  A    between atoms: _245  and  _246
REMARK  101  A    between atoms: _245  and  _248
REMARK  102  A    between atoms: _248  and  _249
REMARK                            x       y       z     vdW  Elec       q    Type
REMARK                         _______ _______ _______ _____ _____    ______ ____
ROOT
ATOM      1  O   HOH     1      27.407  29.989  16.057  0.00  0.00    +0.000 OA
ENDROOT
TORSDOF 0
REMARK  Name = ../refined-set-2016/4j45/4j45_pocket.pdb
REMARK  102 active torsions:
REMARK  status: ('A' for Active; 'I' for Inactive)
REMARK    1  A    between atoms: _1  and  _3
REMARK    2  A    between atoms: _3  and  _4
REMARK    3  A    between atoms: _3  and  _6
REMARK    4  A    between atoms: _6  and  _7
REMARK    5  A    between atoms: _10  and  _12
REMARK    6  A    between atoms: _12  and  _13
REMARK    7  A    between atoms: _12  and  _15
REMARK    8  A    between atoms: _15  and  _16
REMARK    9  A    between atoms: _19  and  _21
REMARK   10  A    between atoms: _21  and  _22
REMARK   11  A    between atoms: _21  and  _24
REMARK   12  A    between atoms: _24  and  _25
REMARK   13  A    between atoms: _28  and  _30
REMARK   14  A    between atoms: _30  and  _31
REMARK   15  A    between atoms: _30  and  _33
REMARK   16  A    between atoms: _33  and  _34
REMARK   17  A    between atoms: _34  and  _35
REMARK   18  A    between atoms: _40  and  _42
REMARK   19  A    between atoms: _42  and  _43
REMARK   20  A    between atoms: _42  and  _45
REMARK   21  A    between atoms: _48  and  _50
REMARK   22  A    between atoms: _50  and  _51
REMARK   23  A    between atoms: _50  and  _53
REMARK   24  A    between atoms: _53  and  _54
REMARK   25  A    between atoms: _54  and  _55
REMARK   26  A    between atoms: _60  and  _62
REMARK   27  A    between atoms: _62  and  _63
REMARK   28  A    between atoms: _65  and  _67
REMARK   29  A    between atoms: _67  and  _68
REMARK   30  A    between atoms: _70  and  _72
REMARK   31  A    between atoms: _72  and  _73
REMARK   32  A    between atoms: _72  and  _75
REMARK   33  A    between atoms: _75  and  _76
REMARK   34  A    between atoms: _76  and  _77
REMARK   35  A    between atoms: _77  and  _78
REMARK   36  A    between atoms: _78  and  _79
REMARK   37  A    between atoms: _83  and  _85
REMARK   38  A    between atoms: _85  and  _86
REMARK   39  A    between atoms: _85  and  _88
REMARK   40  A    between atoms: _88  and  _89
REMARK   41  A    between atoms: _92  and  _94
REMARK   42  A    between atoms: _94  and  _95
REMARK   43  A    between atoms: _94  and  _97
REMARK   44  A    between atoms: _97  and  _98
REMARK   45  A    between atoms: _98  and  _99
REMARK   46  A    between atoms: _99  and  _100
REMARK   47  A    between atoms: _100  and  _101
REMARK   48  A    between atoms: _105  and  _107
REMARK   49  A    between atoms: _107  and  _108
REMARK   50  A    between atoms: _107  and  _110
REMARK   51  A    between atoms: _110  and  _111
REMARK   52  A    between atoms: _116  and  _118
REMARK   53  A    between atoms: _118  and  _119
REMARK   54  A    between atoms: _118  and  _121
REMARK   55  A    between atoms: _121  and  _122
REMARK   56  A    between atoms: _132  and  _134
REMARK   57  A    between atoms: _134  and  _135
REMARK   58  A    between atoms: _134  and  _137
REMARK   59  A    between atoms: _137  and  _138
REMARK   60  A    between atoms: _138  and  _139
REMARK   61  A    between atoms: _143  and  _144
REMARK   62  A    between atoms: _149  and  _151
REMARK   63  A    between atoms: _151  and  _152
REMARK   64  A    between atoms: _154  and  _156
REMARK   65  A    between atoms: _156  and  _157
REMARK   66  A    between atoms: _156  and  _159
REMARK   67  A    between atoms: _159  and  _160
REMARK   68  A    between atoms: _163  and  _165
REMARK   69  A    between atoms: _165  and  _166
REMARK   70  A    between atoms: _165  and  _168
REMARK   71  A    between atoms: _168  and  _169
REMARK   72  A    between atoms: _169  and  _170
REMARK   73  A    between atoms: _170  and  _171
REMARK   74  A    between atoms: _180  and  _182
REMARK   75  A    between atoms: _182  and  _183
REMARK   76  A    between atoms: _186  and  _188
REMARK   77  A    between atoms: _188  and  _189
REMARK   78  A    between atoms: _188  and  _191
REMARK   79  A    between atoms: _191  and  _192
REMARK   80  A    between atoms: _194  and  _196
REMARK   81  A    between atoms: _196  and  _197
REMARK   82  A    between atoms: _196  and  _199
REMARK   83  A    between atoms: _199  and  _200
REMARK   84  A    between atoms: _200  and  _201
REMARK   85  A    between atoms: _204  and  _206
REMARK   86  A    between atoms: _206  and  _207
REMARK   87  A    between atoms: _206  and  _209
REMARK   88  A    between atoms: _209  and  _210
REMARK   89  A    between atoms: _215  and  _217
REMARK   90  A    between atoms: _217  and  _218
REMARK   91  A    between atoms: _217  and  _220
REMARK   92  A    between atoms: _220  and  _221
REMARK   93  A    between atoms: _221  and  _222
REMARK   94  A    between atoms: _222  and  _223
REMARK   95  A    between atoms: _232  and  _234
REMARK   96  A    between atoms: _234  and  _235
REMARK   97  A    between atoms: _234  and  _237
REMARK   98  A    between atoms: _237  and  _238
REMARK   99  A    between atoms: _243  and  _245
REMARK  100  A    between atoms: _245  and  _246
REMARK  101  A    between atoms: _245  and  _248
REMARK  102  A    between atoms: _248  and  _249
REMARK                            x       y       z     vdW  Elec       q    Type
REMARK                         _______ _______ _______ _____ _____    ______ ____
ROOT
ATOM      1  O   HOH     1      30.084  32.783   8.853  0.00  0.00    +0.000 OA
ENDROOT
TORSDOF 0
REMARK  Name = ../refined-set-2016/4j45/4j45_pocket.pdb
REMARK  102 active torsions:
REMARK  status: ('A' for Active; 'I' for Inactive)
REMARK    1  A    between atoms: _1  and  _3
REMARK    2  A    between atoms: _3  and  _4
REMARK    3  A    between atoms: _3  and  _6
REMARK    4  A    between atoms: _6  and  _7
REMARK    5  A    between atoms: _10  and  _12
REMARK    6  A    between atoms: _12  and  _13
REMARK    7  A    between atoms: _12  and  _15
REMARK    8  A    between atoms: _15  and  _16
REMARK    9  A    between atoms: _19  and  _21
REMARK   10  A    between atoms: _21  and  _22
REMARK   11  A    between atoms: _21  and  _24
REMARK   12  A    between atoms: _24  and  _25
REMARK   13  A    between atoms: _28  and  _30
REMARK   14  A    between atoms: _30  and  _31
REMARK   15  A    between atoms: _30  and  _33
REMARK   16  A    between atoms: _33  and  _34
REMARK   17  A    between atoms: _34  and  _35
REMARK   18  A    between atoms: _40  and  _42
REMARK   19  A    between atoms: _42  and  _43
REMARK   20  A    between atoms: _42  and  _45
REMARK   21  A    between atoms: _48  and  _50
REMARK   22  A    between atoms: _50  and  _51
REMARK   23  A    between atoms: _50  and  _53
REMARK   24  A    between atoms: _53  and  _54
REMARK   25  A    between atoms: _54  and  _55
REMARK   26  A    between atoms: _60  and  _62
REMARK   27  A    between atoms: _62  and  _63
REMARK   28  A    between atoms: _65  and  _67
REMARK   29  A    between atoms: _67  and  _68
REMARK   30  A    between atoms: _70  and  _72
REMARK   31  A    between atoms: _72  and  _73
REMARK   32  A    between atoms: _72  and  _75
REMARK   33  A    between atoms: _75  and  _76
REMARK   34  A    between atoms: _76  and  _77
REMARK   35  A    between atoms: _77  and  _78
REMARK   36  A    between atoms: _78  and  _79
REMARK   37  A    between atoms: _83  and  _85
REMARK   38  A    between atoms: _85  and  _86
REMARK   39  A    between atoms: _85  and  _88
REMARK   40  A    between atoms: _88  and  _89
REMARK   41  A    between atoms: _92  and  _94
REMARK   42  A    between atoms: _94  and  _95
REMARK   43  A    between atoms: _94  and  _97
REMARK   44  A    between atoms: _97  and  _98
REMARK   45  A    between atoms: _98  and  _99
REMARK   46  A    between atoms: _99  and  _100
REMARK   47  A    between atoms: _100  and  _101
REMARK   48  A    between atoms: _105  and  _107
REMARK   49  A    between atoms: _107  and  _108
REMARK   50  A    between atoms: _107  and  _110
REMARK   51  A    between atoms: _110  and  _111
REMARK   52  A    between atoms: _116  and  _118
REMARK   53  A    between atoms: _118  and  _119
REMARK   54  A    between atoms: _118  and  _121
REMARK   55  A    between atoms: _121  and  _122
REMARK   56  A    between atoms: _132  and  _134
REMARK   57  A    between atoms: _134  and  _135
REMARK   58  A    between atoms: _134  and  _137
REMARK   59  A    between atoms: _137  and  _138
REMARK   60  A    between atoms: _138  and  _139
REMARK   61  A    between atoms: _143  and  _144
REMARK   62  A    between atoms: _149  and  _151
REMARK   63  A    between atoms: _151  and  _152
REMARK   64  A    between atoms: _154  and  _156
REMARK   65  A    between atoms: _156  and  _157
REMARK   66  A    between atoms: _156  and  _159
REMARK   67  A    between atoms: _159  and  _160
REMARK   68  A    between atoms: _163  and  _165
REMARK   69  A    between atoms: _165  and  _166
REMARK   70  A    between atoms: _165  and  _168
REMARK   71  A    between atoms: _168  and  _169
REMARK   72  A    between atoms: _169  and  _170
REMARK   73  A    between atoms: _170  and  _171
REMARK   74  A    between atoms: _180  and  _182
REMARK   75  A    between atoms: _182  and  _183
REMARK   76  A    between atoms: _186  and  _188
REMARK   77  A    between atoms: _188  and  _189
REMARK   78  A    between atoms: _188  and  _191
REMARK   79  A    between atoms: _191  and  _192
REMARK   80  A    between atoms: _194  and  _196
REMARK   81  A    between atoms: _196  and  _197
REMARK   82  A    between atoms: _196  and  _199
REMARK   83  A    between atoms: _199  and  _200
REMARK   84  A    between atoms: _200  and  _201
REMARK   85  A    between atoms: _204  and  _206
REMARK   86  A    between atoms: _206  and  _207
REMARK   87  A    between atoms: _206  and  _209
REMARK   88  A    between atoms: _209  and  _210
REMARK   89  A    between atoms: _215  and  _217
REMARK   90  A    between atoms: _217  and  _218
REMARK   91  A    between atoms: _217  and  _220
REMARK   92  A    between atoms: _220  and  _221
REMARK   93  A    between atoms: _221  and  _222
REMARK   94  A    between atoms: _222  and  _223
REMARK   95  A    between atoms: _232  and  _234
REMARK   96  A    between atoms: _234  and  _235
REMARK   97  A    between atoms: _234  and  _237
REMARK   98  A    between atoms: _237  and  _238
REMARK   99  A    between atoms: _243  and  _245
REMARK  100  A    between atoms: _245  and  _246
REMARK  101  A    between atoms: _245  and  _248
REMARK  102  A    between atoms: _248  and  _249
REMARK                            x       y       z     vdW  Elec       q    Type
REMARK                         _______ _______ _______ _____ _____    ______ ____
ROOT
ATOM      1  O   HOH     1      33.584  32.573  16.263  0.00  0.00    +0.000 OA
ENDROOT
TORSDOF 0
REMARK  Name = ../refined-set-2016/4j45/4j45_pocket.pdb
REMARK  102 active torsions:
REMARK  status: ('A' for Active; 'I' for Inactive)
REMARK    1  A    between atoms: _1  and  _3
REMARK    2  A    between atoms: _3  and  _4
REMARK    3  A    between atoms: _3  and  _6
REMARK    4  A    between atoms: _6  and  _7
REMARK    5  A    between atoms: _10  and  _12
REMARK    6  A    between atoms: _12  and  _13
REMARK    7  A    between atoms: _12  and  _15
REMARK    8  A    between atoms: _15  and  _16
REMARK    9  A    between atoms: _19  and  _21
REMARK   10  A    between atoms: _21  and  _22
REMARK   11  A    between atoms: _21  and  _24
REMARK   12  A    between atoms: _24  and  _25
REMARK   13  A    between atoms: _28  and  _30
REMARK   14  A    between atoms: _30  and  _31
REMARK   15  A    between atoms: _30  and  _33
REMARK   16  A    between atoms: _33  and  _34
REMARK   17  A    between atoms: _34  and  _35
REMARK   18  A    between atoms: _40  and  _42
REMARK   19  A    between atoms: _42  and  _43
REMARK   20  A    between atoms: _42  and  _45
REMARK   21  A    between atoms: _48  and  _50
REMARK   22  A    between atoms: _50  and  _51
REMARK   23  A    between atoms: _50  and  _53
REMARK   24  A    between atoms: _53  and  _54
REMARK   25  A    between atoms: _54  and  _55
REMARK   26  A    between atoms: _60  and  _62
REMARK   27  A    between atoms: _62  and  _63
REMARK   28  A    between atoms: _65  and  _67
REMARK   29  A    between atoms: _67  and  _68
REMARK   30  A    between atoms: _70  and  _72
REMARK   31  A    between atoms: _72  and  _73
REMARK   32  A    between atoms: _72  and  _75
REMARK   33  A    between atoms: _75  and  _76
REMARK   34  A    between atoms: _76  and  _77
REMARK   35  A    between atoms: _77  and  _78
REMARK   36  A    between atoms: _78  and  _79
REMARK   37  A    between atoms: _83  and  _85
REMARK   38  A    between atoms: _85  and  _86
REMARK   39  A    between atoms: _85  and  _88
REMARK   40  A    between atoms: _88  and  _89
REMARK   41  A    between atoms: _92  and  _94
REMARK   42  A    between atoms: _94  and  _95
REMARK   43  A    between atoms: _94  and  _97
REMARK   44  A    between atoms: _97  and  _98
REMARK   45  A    between atoms: _98  and  _99
REMARK   46  A    between atoms: _99  and  _100
REMARK   47  A    between atoms: _100  and  _101
REMARK   48  A    between atoms: _105  and  _107
REMARK   49  A    between atoms: _107  and  _108
REMARK   50  A    between atoms: _107  and  _110
REMARK   51  A    between atoms: _110  and  _111
REMARK   52  A    between atoms: _116  and  _118
REMARK   53  A    between atoms: _118  and  _119
REMARK   54  A    between atoms: _118  and  _121
REMARK   55  A    between atoms: _121  and  _122
REMARK   56  A    between atoms: _132  and  _134
REMARK   57  A    between atoms: _134  and  _135
REMARK   58  A    between atoms: _134  and  _137
REMARK   59  A    between atoms: _137  and  _138
REMARK   60  A    between atoms: _138  and  _139
REMARK   61  A    between atoms: _143  and  _144
REMARK   62  A    between atoms: _149  and  _151
REMARK   63  A    between atoms: _151  and  _152
REMARK   64  A    between atoms: _154  and  _156
REMARK   65  A    between atoms: _156  and  _157
REMARK   66  A    between atoms: _156  and  _159
REMARK   67  A    between atoms: _159  and  _160
REMARK   68  A    between atoms: _163  and  _165
REMARK   69  A    between atoms: _165  and  _166
REMARK   70  A    between atoms: _165  and  _168
REMARK   71  A    between atoms: _168  and  _169
REMARK   72  A    between atoms: _169  and  _170
REMARK   73  A    between atoms: _170  and  _171
REMARK   74  A    between atoms: _180  and  _182
REMARK   75  A    between atoms: _182  and  _183
REMARK   76  A    between atoms: _186  and  _188
REMARK   77  A    between atoms: _188  and  _189
REMARK   78  A    between atoms: _188  and  _191
REMARK   79  A    between atoms: _191  and  _192
REMARK   80  A    between atoms: _194  and  _196
REMARK   81  A    between atoms: _196  and  _197
REMARK   82  A    between atoms: _196  and  _199
REMARK   83  A    between atoms: _199  and  _200
REMARK   84  A    between atoms: _200  and  _201
REMARK   85  A    between atoms: _204  and  _206
REMARK   86  A    between atoms: _206  and  _207
REMARK   87  A    between atoms: _206  and  _209
REMARK   88  A    between atoms: _209  and  _210
REMARK   89  A    between atoms: _215  and  _217
REMARK   90  A    between atoms: _217  and  _218
REMARK   91  A    between atoms: _217  and  _220
REMARK   92  A    between atoms: _220  and  _221
REMARK   93  A    between atoms: _221  and  _222
REMARK   94  A    between atoms: _222  and  _223
REMARK   95  A    between atoms: _232  and  _234
REMARK   96  A    between atoms: _234  and  _235
REMARK   97  A    between atoms: _234  and  _237
REMARK   98  A    between atoms: _237  and  _238
REMARK   99  A    between atoms: _243  and  _245
REMARK  100  A    between atoms: _245  and  _246
REMARK  101  A    between atoms: _245  and  _248
REMARK  102  A    between atoms: _248  and  _249
REMARK                            x       y       z     vdW  Elec       q    Type
REMARK                         _______ _______ _______ _____ _____    ______ ____
ROOT
ATOM      1  O   HOH     1      32.574  34.157  13.666  0.00  0.00    +0.000 OA
ENDROOT
TORSDOF 0
