REMARK  Name = ../refined-set-2016/3coz/3coz_pocket.pdb
REMARK  228 active torsions:
REMARK  status: ('A' for Active; 'I' for Inactive)
REMARK    1  A    between atoms: _1  and  _3
REMARK    2  A    between atoms: _3  and  _4
REMARK    3  A    between atoms: _3  and  _6
REMARK    4  A    between atoms: _6  and  _7
REMARK    5  A    between atoms: _10  and  _12
REMARK    6  A    between atoms: _12  and  _13
REMARK    7  A    between atoms: _12  and  _15
REMARK    8  A    between atoms: _19  and  _20
REMARK    9  A    between atoms: _25  and  _27
REMARK   10  A    between atoms: _27  and  _28
REMARK   11  A    between atoms: _27  and  _30
REMARK   12  A    between atoms: _30  and  _31
REMARK   13  A    between atoms: _34  and  _36
REMARK   14  A    between atoms: _36  and  _37
REMARK   15  A    between atoms: _36  and  _39
REMARK   16  A    between atoms: _39  and  _40
REMARK   17  A    between atoms: _40  and  _41
REMARK   18  A    between atoms: _43  and  _45
REMARK   19  A    between atoms: _45  and  _46
REMARK   20  A    between atoms: _48  and  _50
REMARK   21  A    between atoms: _50  and  _51
REMARK   22  A    between atoms: _54  and  _56
REMARK   23  A    between atoms: _56  and  _57
REMARK   24  A    between atoms: _56  and  _59
REMARK   25  A    between atoms: _59  and  _60
REMARK   26  A    between atoms: _63  and  _65
REMARK   27  A    between atoms: _65  and  _66
REMARK   28  A    between atoms: _65  and  _68
REMARK   29  A    between atoms: _68  and  _69
REMARK   30  A    between atoms: _74  and  _76
REMARK   31  A    between atoms: _76  and  _77
REMARK   32  A    between atoms: _76  and  _79
REMARK   33  A    between atoms: _79  and  _80
REMARK   34  A    between atoms: _80  and  _81
REMARK   35  A    between atoms: _84  and  _86
REMARK   36  A    between atoms: _86  and  _87
REMARK   37  A    between atoms: _89  and  _91
REMARK   38  A    between atoms: _91  and  _92
REMARK   39  A    between atoms: _91  and  _94
REMARK   40  A    between atoms: _94  and  _95
REMARK   41  A    between atoms: _100  and  _102
REMARK   42  A    between atoms: _102  and  _103
REMARK   43  A    between atoms: _102  and  _105
REMARK   44  A    between atoms: _105  and  _106
REMARK   45  A    between atoms: _109  and  _111
REMARK   46  A    between atoms: _111  and  _112
REMARK   47  A    between atoms: _115  and  _117
REMARK   48  A    between atoms: _117  and  _118
REMARK   49  A    between atoms: _117  and  _120
REMARK   50  A    between atoms: _120  and  _121
REMARK   51  A    between atoms: _124  and  _126
REMARK   52  A    between atoms: _126  and  _127
REMARK   53  A    between atoms: _126  and  _129
REMARK   54  A    between atoms: _132  and  _134
REMARK   55  A    between atoms: _134  and  _135
REMARK   56  A    between atoms: _134  and  _137
REMARK   57  A    between atoms: _140  and  _142
REMARK   58  A    between atoms: _142  and  _143
REMARK   59  A    between atoms: _142  and  _145
REMARK   60  A    between atoms: _145  and  _146
REMARK   61  A    between atoms: _148  and  _150
REMARK   62  A    between atoms: _150  and  _151
REMARK   63  A    between atoms: _150  and  _153
REMARK   64  A    between atoms: _153  and  _154
REMARK   65  A    between atoms: _157  and  _159
REMARK   66  A    between atoms: _159  and  _160
REMARK   67  A    between atoms: _159  and  _162
REMARK   68  A    between atoms: _162  and  _163
REMARK   69  A    between atoms: _169  and  _171
REMARK   70  A    between atoms: _171  and  _172
REMARK   71  A    between atoms: _171  and  _174
REMARK   72  A    between atoms: _177  and  _179
REMARK   73  A    between atoms: _179  and  _180
REMARK   74  A    between atoms: _179  and  _182
REMARK   75  A    between atoms: _182  and  _183
REMARK   76  A    between atoms: _188  and  _190
REMARK   77  A    between atoms: _190  and  _191
REMARK   78  A    between atoms: _190  and  _193
REMARK   79  A    between atoms: _193  and  _194
REMARK   80  A    between atoms: _194  and  _195
REMARK   81  A    between atoms: _200  and  _202
REMARK   82  A    between atoms: _202  and  _203
REMARK   83  A    between atoms: _202  and  _205
REMARK   84  A    between atoms: _205  and  _206
REMARK   85  A    between atoms: _212  and  _214
REMARK   86  A    between atoms: _214  and  _215
REMARK   87  A    between atoms: _214  and  _217
REMARK   88  A    between atoms: _217  and  _218
REMARK   89  A    between atoms: _223  and  _224
REMARK   90  A    between atoms: _227  and  _228
REMARK   91  A    between atoms: _233  and  _235
REMARK   92  A    between atoms: _235  and  _236
REMARK   93  A    between atoms: _235  and  _238
REMARK   94  A    between atoms: _238  and  _239
REMARK   95  A    between atoms: _244  and  _246
REMARK   96  A    between atoms: _246  and  _247
REMARK   97  A    between atoms: _246  and  _249
REMARK   98  A    between atoms: _249  and  _250
REMARK   99  A    between atoms: _256  and  _258
REMARK  100  A    between atoms: _258  and  _259
REMARK  101  A    between atoms: _261  and  _263
REMARK  102  A    between atoms: _263  and  _264
REMARK  103  A    between atoms: _263  and  _266
REMARK  104  A    between atoms: _269  and  _271
REMARK  105  A    between atoms: _271  and  _272
REMARK  106  A    between atoms: _271  and  _274
REMARK  107  A    between atoms: _274  and  _275
REMARK  108  A    between atoms: _278  and  _280
REMARK  109  A    between atoms: _280  and  _281
REMARK  110  A    between atoms: _280  and  _283
REMARK  111  A    between atoms: _286  and  _288
REMARK  112  A    between atoms: _288  and  _289
REMARK  113  A    between atoms: _288  and  _291
REMARK  114  A    between atoms: _294  and  _296
REMARK  115  A    between atoms: _296  and  _297
REMARK  116  A    between atoms: _296  and  _299
REMARK  117  A    between atoms: _299  and  _300
REMARK  118  A    between atoms: _303  and  _305
REMARK  119  A    between atoms: _305  and  _306
REMARK  120  A    between atoms: _305  and  _308
REMARK  121  A    between atoms: _311  and  _313
REMARK  122  A    between atoms: _313  and  _314
REMARK  123  A    between atoms: _313  and  _316
REMARK  124  A    between atoms: _316  and  _317
REMARK  125  A    between atoms: _323  and  _325
REMARK  126  A    between atoms: _325  and  _326
REMARK  127  A    between atoms: _325  and  _328
REMARK  128  A    between atoms: _328  and  _329
REMARK  129  A    between atoms: _335  and  _337
REMARK  130  A    between atoms: _337  and  _338
REMARK  131  A    between atoms: _340  and  _342
REMARK  132  A    between atoms: _342  and  _343
REMARK  133  A    between atoms: _342  and  _345
REMARK  134  A    between atoms: _345  and  _346
REMARK  135  A    between atoms: _346  and  _347
REMARK  136  A    between atoms: _350  and  _352
REMARK  137  A    between atoms: _352  and  _353
REMARK  138  A    between atoms: _352  and  _355
REMARK  139  A    between atoms: _355  and  _356
REMARK  140  A    between atoms: _356  and  _357
REMARK  141  A    between atoms: _357  and  _358
REMARK  142  A    between atoms: _358  and  _359
REMARK  143  A    between atoms: _363  and  _365
REMARK  144  A    between atoms: _365  and  _366
REMARK  145  A    between atoms: _365  and  _368
REMARK  146  A    between atoms: _368  and  _369
REMARK  147  A    between atoms: _372  and  _374
REMARK  148  A    between atoms: _374  and  _375
REMARK  149  A    between atoms: _374  and  _377
REMARK  150  A    between atoms: _377  and  _378
REMARK  151  A    between atoms: _383  and  _384
REMARK  152  A    between atoms: _386  and  _388
REMARK  153  A    between atoms: _388  and  _389
REMARK  154  A    between atoms: _388  and  _391
REMARK  155  A    between atoms: _391  and  _392
REMARK  156  A    between atoms: _392  and  _393
REMARK  157  A    between atoms: _398  and  _400
REMARK  158  A    between atoms: _400  and  _401
REMARK  159  A    between atoms: _400  and  _403
REMARK  160  A    between atoms: _403  and  _404
REMARK  161  A    between atoms: _407  and  _409
REMARK  162  A    between atoms: _409  and  _410
REMARK  163  A    between atoms: _409  and  _412
REMARK  164  A    between atoms: _412  and  _413
REMARK  165  A    between atoms: _416  and  _418
REMARK  166  A    between atoms: _418  and  _419
REMARK  167  A    between atoms: _418  and  _421
REMARK  168  A    between atoms: _424  and  _426
REMARK  169  A    between atoms: _426  and  _427
REMARK  170  A    between atoms: _429  and  _431
REMARK  171  A    between atoms: _431  and  _432
REMARK  172  A    between atoms: _431  and  _434
REMARK  173  A    between atoms: _438  and  _439
REMARK  174  A    between atoms: _444  and  _446
REMARK  175  A    between atoms: _446  and  _447
REMARK  176  A    between atoms: _446  and  _449
REMARK  177  A    between atoms: _449  and  _450
REMARK  178  A    between atoms: _453  and  _455
REMARK  179  A    between atoms: _455  and  _456
REMARK  180  A    between atoms: _455  and  _458
REMARK  181  A    between atoms: _461  and  _463
REMARK  182  A    between atoms: _463  and  _464
REMARK  183  A    between atoms: _463  and  _466
REMARK  184  A    between atoms: _466  and  _467
REMARK  185  A    between atoms: _467  and  _468
REMARK  186  A    between atoms: _468  and  _469
REMARK  187  A    between atoms: _478  and  _480
REMARK  188  A    between atoms: _480  and  _481
REMARK  189  A    between atoms: _480  and  _483
REMARK  190  A    between atoms: _483  and  _484
REMARK  191  A    between atoms: _484  and  _485
REMARK  192  A    between atoms: _488  and  _490
REMARK  193  A    between atoms: _490  and  _491
REMARK  194  A    between atoms: _490  and  _493
REMARK  195  A    between atoms: _493  and  _494
REMARK  196  A    between atoms: _497  and  _499
REMARK  197  A    between atoms: _499  and  _500
REMARK  198  A    between atoms: _503  and  _505
REMARK  199  A    between atoms: _505  and  _506
REMARK  200  A    between atoms: _505  and  _508
REMARK  201  A    between atoms: _508  and  _509
REMARK  202  A    between atoms: _509  and  _510
REMARK  203  A    between atoms: _512  and  _514
REMARK  204  A    between atoms: _514  and  _515
REMARK  205  A    between atoms: _514  and  _517
REMARK  206  A    between atoms: _517  and  _518
REMARK  207  A    between atoms: _520  and  _522
REMARK  208  A    between atoms: _522  and  _523
REMARK  209  A    between atoms: _522  and  _525
REMARK  210  A    between atoms: _525  and  _526
REMARK  211  A    between atoms: _528  and  _530
REMARK  212  A    between atoms: _530  and  _531
REMARK  213  A    between atoms: _530  and  _533
REMARK  214  A    between atoms: _533  and  _534
REMARK  215  A    between atoms: _534  and  _535
REMARK  216  A    between atoms: _535  and  _536
REMARK  217  A    between atoms: _545  and  _547
REMARK  218  A    between atoms: _547  and  _548
REMARK  219  A    between atoms: _547  and  _550
REMARK  220  A    between atoms: _550  and  _551
REMARK  221  A    between atoms: _556  and  _558
REMARK  222  A    between atoms: _558  and  _559
REMARK  223  A    between atoms: _558  and  _561
REMARK  224  A    between atoms: _561  and  _562
REMARK  225  A    between atoms: _565  and  _567
REMARK  226  A    between atoms: _567  and  _568
REMARK  227  A    between atoms: _567  and  _570
REMARK  228  A    between atoms: _570  and  _571
REMARK                            x       y       z     vdW  Elec       q    Type
REMARK                         _______ _______ _______ _____ _____    ______ ____
ROOT
ATOM      1  CA  HIS A   9      15.167  18.211  -3.724  0.00  0.00    +0.155 C 
ENDROOT
BRANCH   1   2
ATOM      2  C   HIS A   9      13.998  17.495  -4.425  0.00  0.00    +0.241 C 
ATOM      3  O   HIS A   9      13.035  17.061  -3.772  0.00  0.00    -0.273 OA
ATOM      4  N   GLU A  10      14.069  17.371  -5.750  0.00  0.00    -0.297 N 
ATOM      5  H   GLU A  10      14.936  17.663  -6.245  0.00  0.00    +0.150 HD
BRANCH   4   6
ATOM      6  CA  GLU A  10      12.946  16.830  -6.520  0.00  0.00    +0.149 C 
BRANCH   6   7
ATOM      7  C   GLU A  10      12.545  15.401  -6.136  0.00  0.00    +0.241 C 
ATOM      8  N   GLY A  11      13.519  14.621  -5.683  0.00  0.00    -0.295 N 
ATOM      9  H   GLY A  11      14.495  14.979  -5.681  0.00  0.00    +0.150 HD
ATOM     10  O   GLU A  10      11.370  15.010  -6.262  0.00  0.00    -0.273 OA
BRANCH   8  11
ATOM     11  CA  GLY A  11      13.255  13.275  -5.188  0.00  0.00    +0.176 C 
BRANCH  11  12
ATOM     12  C   GLY A  11      12.344  13.305  -3.967  0.00  0.00    +0.243 C 
ATOM     13  N   HIS A  12      12.632  14.201  -3.025  0.00  0.00    -0.297 N 
ATOM     14  H   HIS A  12      13.479  14.797  -3.113  0.00  0.00    +0.150 HD
ATOM     15  O   GLY A  11      11.377  12.542  -3.881  0.00  0.00    -0.273 OA
BRANCH  13  16
ATOM     16  CA  HIS A  12      11.750  14.343  -1.864  0.00  0.00    +0.155 C 
BRANCH  16  17
ATOM     17  C   HIS A  12      10.374  14.836  -2.294  0.00  0.00    +0.241 C 
ATOM     18  O   HIS A  12       9.362  14.434  -1.708  0.00  0.00    -0.273 OA
ATOM     19  N   LEU A  13      10.332  15.694  -3.314  0.00  0.00    -0.297 N 
ATOM     20  H   LEU A  13      11.205  15.939  -3.823  0.00  0.00    +0.150 HD
BRANCH  19  21
ATOM     21  CA  LEU A  13       9.055  16.293  -3.720  0.00  0.00    +0.149 C 
BRANCH  21  22
ATOM     22  C   LEU A  13       8.124  15.296  -4.424  0.00  0.00    +0.241 C 
ATOM     23  O   LEU A  13       6.898  15.473  -4.432  0.00  0.00    -0.273 OA
ATOM     24  N   ALA A  14       8.695  14.250  -5.021  0.00  0.00    -0.297 N 
ATOM     25  H   ALA A  14       9.732  14.186  -5.074  0.00  0.00    +0.150 HD
BRANCH  24  26
ATOM     26  CA  ALA A  14       7.865  13.188  -5.605  0.00  0.00    +0.149 C 
ATOM     27  CB  ALA A  14       8.681  12.249  -6.446  0.00  0.00    +0.031 C 
BRANCH  26  28
ATOM     28  C   ALA A  14       7.088  12.425  -4.527  0.00  0.00    +0.241 C 
ATOM     29  N   LEU A  15       7.705  12.267  -3.345  0.00  0.00    -0.297 N 
ATOM     30  H   LEU A  15       8.691  12.584  -3.247  0.00  0.00    +0.150 HD
ATOM     31  O   ALA A  14       5.938  12.001  -4.767  0.00  0.00    -0.273 OA
BRANCH  29  32
ATOM     32  CA  LEU A  15       7.040  11.665  -2.193  0.00  0.00    +0.149 C 
BRANCH  32  33
ATOM     33  C   LEU A  15       5.942  12.597  -1.736  0.00  0.00    +0.241 C 
ATOM     34  O   LEU A  15       4.830  12.160  -1.439  0.00  0.00    -0.273 OA
ATOM     35  N   VAL A  16       6.265  13.882  -1.664  0.00  0.00    -0.298 N 
ATOM     36  H   VAL A  16       7.243  14.172  -1.866  0.00  0.00    +0.150 HD
BRANCH  35  37
ATOM     37  CA  VAL A  16       5.267  14.911  -1.303  0.00  0.00    +0.137 C 
BRANCH  37  38
ATOM     38  CB  VAL A  16       5.904  16.331  -1.281  0.00  0.00    +0.026 C 
ATOM     39  CG2 VAL A  16       6.844  16.481  -0.099  0.00  0.00    +0.002 C 
ATOM     40  CG1 VAL A  16       4.831  17.406  -1.238  0.00  0.00    +0.002 C 
ENDBRANCH  37  38
BRANCH  37  41
ATOM     41  C   VAL A  16       4.055  14.876  -2.235  0.00  0.00    +0.227 C 
ATOM     42  O   VAL A  16       2.901  14.867  -1.791  0.00  0.00    -0.286 OA
ENDBRANCH  37  41
ENDBRANCH  35  37
ENDBRANCH  32  33
BRANCH  32  43
ATOM     43  CB  LEU A  15       7.992  11.438  -1.014  0.00  0.00    +0.029 C 
BRANCH  43  44
ATOM     44  CG  LEU A  15       9.388  10.801  -1.103  0.00  0.00    +0.002 C 
ATOM     45  CD2 LEU A  15       9.680  10.017   0.179  0.00  0.00    +0.000 C 
ATOM     46  CD1 LEU A  15       9.588   9.909  -2.278  0.00  0.00    +0.000 C 
ENDBRANCH  43  44
ENDBRANCH  32  43
ENDBRANCH  29  32
ENDBRANCH  26  28
ENDBRANCH  24  26
ENDBRANCH  21  22
BRANCH  21  47
ATOM     47  CB  LEU A  13       9.276  17.543  -4.580  0.00  0.00    +0.029 C 
BRANCH  47  48
ATOM     48  CG  LEU A  13      10.063  18.717  -3.960  0.00  0.00    +0.002 C 
ATOM     49  CD2 LEU A  13       9.538  19.130  -2.586  0.00  0.00    +0.000 C 
ATOM     50  CD1 LEU A  13      10.066  19.898  -4.917  0.00  0.00    +0.000 C 
ENDBRANCH  47  48
ENDBRANCH  21  47
ENDBRANCH  19  21
ENDBRANCH  16  17
BRANCH  16  51
ATOM     51  CB  HIS A  12      12.308  15.316  -0.830  0.00  0.00    +0.076 C 
BRANCH  51  52
ATOM     52  CG  HIS A  12      13.660  14.950  -0.312  0.00  0.00    +0.082 A 
ATOM     53  CD2 HIS A  12      14.055  13.985   0.552  0.00  0.00    +0.115 A 
ATOM     54  NE2 HIS A  12      15.419  14.107   0.697  0.00  0.00    -0.221 NA
ATOM     55  CE1 HIS A  12      15.846  15.097  -0.068  0.00  0.00    +0.199 A 
ATOM     56  ND1 HIS A  12      14.804  15.620  -0.689  0.00  0.00    -0.227 NA
ENDBRANCH  51  52
ENDBRANCH  16  51
ENDBRANCH  13  16
ENDBRANCH  11  12
ENDBRANCH   8  11
ENDBRANCH   6   7
BRANCH   6  57
ATOM     57  CB  GLU A  10      13.240  16.914  -8.019  0.00  0.00    +0.041 C 
BRANCH  57  58
ATOM     58  CG  GLU A  10      11.995  17.028  -8.860  0.00  0.00    +0.116 C 
BRANCH  58  59
ATOM     59  CD  GLU A  10      11.239  18.318  -8.602  0.00  0.00    +0.365 C 
ATOM     60  OE2 GLU A  10      11.883  19.348  -8.302  0.00  0.00    -0.246 OA
ATOM     61  OE1 GLU A  10       9.995  18.300  -8.706  0.00  0.00    -0.246 OA
ENDBRANCH  58  59
ENDBRANCH  57  58
ENDBRANCH   6  57
ENDBRANCH   4   6
ENDBRANCH   1   2
BRANCH   1  64
ATOM     62  C   LEU A   8      15.117  19.181  -1.482  0.00  0.00    +0.241 C 
ATOM     63  O   LEU A   8      15.473  20.309  -1.860  0.00  0.00    -0.273 OA
ATOM     64  N   HIS A   9      15.002  18.130  -2.282  0.00  0.00    -0.297 N 
ATOM     65  H   HIS A   9      14.784  17.205  -1.859  0.00  0.00    +0.150 HD
BRANCH  62  66
ATOM     66  CA  LEU A   8      14.773  18.917  -0.024  0.00  0.00    +0.149 C 
BRANCH  66  68
ATOM     67  C   ALA A   7      16.946  19.047   1.024  0.00  0.00    +0.241 C 
ATOM     68  N   LEU A   8      15.727  19.540   0.860  0.00  0.00    -0.297 N 
ATOM     69  H   LEU A   8      15.452  20.397   1.381  0.00  0.00    +0.150 HD
ATOM     70  O   ALA A   7      17.417  18.163   0.310  0.00  0.00    -0.273 OA
BRANCH  67  71
ATOM     71  CA  ALA A   7      17.728  19.651   2.185  0.00  0.00    +0.149 C 
ATOM     72  CB  ALA A   7      19.126  19.040   2.281  0.00  0.00    +0.031 C 
BRANCH  71  74
ATOM     73  C   GLY A   6      16.514  18.236   3.826  0.00  0.00    +0.243 C 
ATOM     74  N   ALA A   7      16.957  19.440   3.436  0.00  0.00    -0.297 N 
ATOM     75  H   ALA A   7      16.751  20.263   4.037  0.00  0.00    +0.150 HD
ATOM     76  O   GLY A   6      16.830  17.177   3.270  0.00  0.00    -0.273 OA
BRANCH  73  77
ATOM     77  CA  GLY A   6      15.588  18.220   5.038  0.00  0.00    +0.176 C 
BRANCH  77  80
ATOM     78  C   MET A   5      16.365  16.360   6.387  0.00  0.00    +0.241 C 
ATOM     79  O   MET A   5      17.406  16.953   6.645  0.00  0.00    -0.273 OA
ATOM     80  N   GLY A   6      15.416  16.887   5.629  0.00  0.00    -0.295 N 
ATOM     81  H   GLY A   6      14.542  16.353   5.451  0.00  0.00    +0.150 HD
BRANCH  78  82
ATOM     82  CA  MET A   5      16.103  14.971   6.922  0.00  0.00    +0.149 C 
BRANCH  82  85
ATOM     83  C   THR A   4      13.805  14.187   6.614  0.00  0.00    +0.243 C 
ATOM     84  O   THR A   4      13.475  14.470   7.778  0.00  0.00    -0.273 OA
ATOM     85  N   MET A   5      15.040  14.330   6.142  0.00  0.00    -0.297 N 
ATOM     86  H   MET A   5      15.259  13.976   5.189  0.00  0.00    +0.150 HD
BRANCH  83  87
ATOM     87  CA  THR A   4      12.772  13.657   5.611  0.00  0.00    +0.176 C 
BRANCH  87  89
ATOM     88  C   PRO A   3      10.920  12.058   5.983  0.00  0.00    +0.241 C 
ATOM     89  N   THR A   4      11.526  13.209   6.285  0.00  0.00    -0.295 N 
ATOM     90  H   THR A   4      11.110  13.815   7.020  0.00  0.00    +0.150 HD
ATOM     91  O   PRO A   3      11.274  11.306   5.086  0.00  0.00    -0.273 OA
BRANCH  88  94
ATOM     92  C   VAL A   2       7.912  12.436   5.418  0.00  0.00    +0.244 C 
ATOM     93  N   PRO A   3       8.580  11.407   5.948  0.00  0.00    -0.272 N 
ATOM     94  CA  PRO A   3       9.735  11.694   6.811  0.00  0.00    +0.152 C 
ATOM     95  CB  PRO A   3       9.999  10.360   7.504  0.00  0.00    +0.031 C 
ATOM     96  CG  PRO A   3       8.687   9.544   7.305  0.00  0.00    +0.024 C 
ATOM     97  CD  PRO A   3       8.291   9.973   5.899  0.00  0.00    +0.094 C 
ATOM     98  O   VAL A   2       8.230  13.585   5.663  0.00  0.00    -0.273 OA
BRANCH  92  99
ATOM     99  CA  VAL A   2       6.656  12.113   4.541  0.00  0.00    +0.149 C 
BRANCH  99 101
ATOM    100  C   LEU A   1       4.645  11.126   5.555  0.00  0.00    +0.238 C 
ATOM    101  N   VAL A   2       5.428  12.183   5.322  0.00  0.00    -0.297 N 
ATOM    102  H   VAL A   2       5.147  13.103   5.718  0.00  0.00    +0.150 HD
ATOM    103  O   LEU A   1       4.801  10.017   5.031  0.00  0.00    -0.274 OA
BRANCH 100 104
ATOM    104  CA  LEU A   1       3.492  11.355   6.511  0.00  0.00    +0.145 C 
BRANCH 104 105
ATOM    105  N   LEU A   1       2.216  10.941   5.913  0.00  0.00    -0.238 NA
ATOM    106  H   LEU A   1       2.054   9.952   5.635  0.00  0.00    +0.142 HD
ENDBRANCH 104 105
BRANCH 104 107
ATOM    107  CB  LEU A   1       3.750  10.664   7.867  0.00  0.00    +0.026 C 
BRANCH 107 108
ATOM    108  CG  LEU A   1       5.140  10.935   8.497  0.00  0.00    +0.002 C 
ATOM    109  CD2 LEU A   1       5.342  10.027   9.659  0.00  0.00    +0.000 C 
ATOM    110  CD1 LEU A   1       5.354  12.445   8.916  0.00  0.00    +0.000 C 
ENDBRANCH 107 108
ENDBRANCH 104 107
ENDBRANCH 100 104
ENDBRANCH  99 101
BRANCH  99 111
ATOM    111  CB  VAL A   2       6.589  13.032   3.286  0.00  0.00    +0.027 C 
ATOM    112  CG2 VAL A   2       5.302  12.729   2.470  0.00  0.00    +0.002 C 
ATOM    113  CG1 VAL A   2       7.827  12.843   2.405  0.00  0.00    +0.002 C 
ENDBRANCH  99 111
ENDBRANCH  92  99
ENDBRANCH  88  94
ENDBRANCH  87  89
BRANCH  87 114
ATOM    114  CB  THR A   4      12.505  14.842   4.626  0.00  0.00    +0.137 C 
ATOM    115  CG2 THR A   4      11.205  14.640   3.835  0.00  0.00    +0.034 C 
BRANCH 114 116
ATOM    116  OG1 THR A   4      12.406  16.064   5.362  0.00  0.00    -0.382 OA
ATOM    117  HG1 THR A   4      11.660  15.999   6.009  0.00  0.00    +0.210 HD
ENDBRANCH 114 116
ENDBRANCH  87 114
ENDBRANCH  83  87
ENDBRANCH  82  85
BRANCH  82 118
ATOM    118  CB  MET A   5      17.389  14.122   6.911  0.00  0.00    +0.041 C 
BRANCH 118 119
ATOM    119  CG  MET A   5      17.224  12.822   7.682  0.00  0.00    +0.060 C 
BRANCH 119 120
ATOM    120  SD  MET A   5      18.755  12.078   8.296  0.00  0.00    -0.139 S 
ATOM    121  CE  MET A   5      19.480  11.549   6.755  0.00  0.00    +0.069 C 
ENDBRANCH 119 120
ENDBRANCH 118 119
ENDBRANCH  82 118
ENDBRANCH  78  82
ENDBRANCH  77  80
ENDBRANCH  73  77
ENDBRANCH  71  74
ENDBRANCH  67  71
ENDBRANCH  66  68
BRANCH  66 122
ATOM    122  CB  LEU A   8      13.379  19.438   0.280  0.00  0.00    +0.029 C 
BRANCH 122 123
ATOM    123  CG  LEU A   8      12.867  19.273   1.706  0.00  0.00    +0.002 C 
ATOM    124  CD2 LEU A   8      12.947  17.793   2.150  0.00  0.00    +0.000 C 
ATOM    125  CD1 LEU A   8      11.444  19.768   1.727  0.00  0.00    +0.000 C 
ENDBRANCH 122 123
ENDBRANCH  66 122
ENDBRANCH  62  66
ENDBRANCH   1  64
BRANCH   1 126
ATOM    126  CB  HIS A   9      16.545  17.657  -4.146  0.00  0.00    +0.076 C 
BRANCH 126 127
ATOM    127  CG  HIS A   9      16.821  16.255  -3.683  0.00  0.00    +0.082 A 
ATOM    128  CD2 HIS A   9      17.796  15.751  -2.888  0.00  0.00    +0.115 A 
ATOM    129  NE2 HIS A   9      17.607  14.391  -2.825  0.00  0.00    -0.221 NA
ATOM    130  CE1 HIS A   9      16.544  14.072  -3.540  0.00  0.00    +0.199 A 
ATOM    131  ND1 HIS A   9      16.074  15.175  -4.095  0.00  0.00    -0.227 NA
ENDBRANCH 126 127
ENDBRANCH   1 126
TORSDOF 53
REMARK  Name = ../refined-set-2016/3coz/3coz_pocket.pdb
REMARK  228 active torsions:
REMARK  status: ('A' for Active; 'I' for Inactive)
REMARK    1  A    between atoms: _1  and  _3
REMARK    2  A    between atoms: _3  and  _4
REMARK    3  A    between atoms: _3  and  _6
REMARK    4  A    between atoms: _6  and  _7
REMARK    5  A    between atoms: _10  and  _12
REMARK    6  A    between atoms: _12  and  _13
REMARK    7  A    between atoms: _12  and  _15
REMARK    8  A    between atoms: _19  and  _20
REMARK    9  A    between atoms: _25  and  _27
REMARK   10  A    between atoms: _27  and  _28
REMARK   11  A    between atoms: _27  and  _30
REMARK   12  A    between atoms: _30  and  _31
REMARK   13  A    between atoms: _34  and  _36
REMARK   14  A    between atoms: _36  and  _37
REMARK   15  A    between atoms: _36  and  _39
REMARK   16  A    between atoms: _39  and  _40
REMARK   17  A    between atoms: _40  and  _41
REMARK   18  A    between atoms: _43  and  _45
REMARK   19  A    between atoms: _45  and  _46
REMARK   20  A    between atoms: _48  and  _50
REMARK   21  A    between atoms: _50  and  _51
REMARK   22  A    between atoms: _54  and  _56
REMARK   23  A    between atoms: _56  and  _57
REMARK   24  A    between atoms: _56  and  _59
REMARK   25  A    between atoms: _59  and  _60
REMARK   26  A    between atoms: _63  and  _65
REMARK   27  A    between atoms: _65  and  _66
REMARK   28  A    between atoms: _65  and  _68
REMARK   29  A    between atoms: _68  and  _69
REMARK   30  A    between atoms: _74  and  _76
REMARK   31  A    between atoms: _76  and  _77
REMARK   32  A    between atoms: _76  and  _79
REMARK   33  A    between atoms: _79  and  _80
REMARK   34  A    between atoms: _80  and  _81
REMARK   35  A    between atoms: _84  and  _86
REMARK   36  A    between atoms: _86  and  _87
REMARK   37  A    between atoms: _89  and  _91
REMARK   38  A    between atoms: _91  and  _92
REMARK   39  A    between atoms: _91  and  _94
REMARK   40  A    between atoms: _94  and  _95
REMARK   41  A    between atoms: _100  and  _102
REMARK   42  A    between atoms: _102  and  _103
REMARK   43  A    between atoms: _102  and  _105
REMARK   44  A    between atoms: _105  and  _106
REMARK   45  A    between atoms: _109  and  _111
REMARK   46  A    between atoms: _111  and  _112
REMARK   47  A    between atoms: _115  and  _117
REMARK   48  A    between atoms: _117  and  _118
REMARK   49  A    between atoms: _117  and  _120
REMARK   50  A    between atoms: _120  and  _121
REMARK   51  A    between atoms: _124  and  _126
REMARK   52  A    between atoms: _126  and  _127
REMARK   53  A    between atoms: _126  and  _129
REMARK   54  A    between atoms: _132  and  _134
REMARK   55  A    between atoms: _134  and  _135
REMARK   56  A    between atoms: _134  and  _137
REMARK   57  A    between atoms: _140  and  _142
REMARK   58  A    between atoms: _142  and  _143
REMARK   59  A    between atoms: _142  and  _145
REMARK   60  A    between atoms: _145  and  _146
REMARK   61  A    between atoms: _148  and  _150
REMARK   62  A    between atoms: _150  and  _151
REMARK   63  A    between atoms: _150  and  _153
REMARK   64  A    between atoms: _153  and  _154
REMARK   65  A    between atoms: _157  and  _159
REMARK   66  A    between atoms: _159  and  _160
REMARK   67  A    between atoms: _159  and  _162
REMARK   68  A    between atoms: _162  and  _163
REMARK   69  A    between atoms: _169  and  _171
REMARK   70  A    between atoms: _171  and  _172
REMARK   71  A    between atoms: _171  and  _174
REMARK   72  A    between atoms: _177  and  _179
REMARK   73  A    between atoms: _179  and  _180
REMARK   74  A    between atoms: _179  and  _182
REMARK   75  A    between atoms: _182  and  _183
REMARK   76  A    between atoms: _188  and  _190
REMARK   77  A    between atoms: _190  and  _191
REMARK   78  A    between atoms: _190  and  _193
REMARK   79  A    between atoms: _193  and  _194
REMARK   80  A    between atoms: _194  and  _195
REMARK   81  A    between atoms: _200  and  _202
REMARK   82  A    between atoms: _202  and  _203
REMARK   83  A    between atoms: _202  and  _205
REMARK   84  A    between atoms: _205  and  _206
REMARK   85  A    between atoms: _212  and  _214
REMARK   86  A    between atoms: _214  and  _215
REMARK   87  A    between atoms: _214  and  _217
REMARK   88  A    between atoms: _217  and  _218
REMARK   89  A    between atoms: _223  and  _224
REMARK   90  A    between atoms: _227  and  _228
REMARK   91  A    between atoms: _233  and  _235
REMARK   92  A    between atoms: _235  and  _236
REMARK   93  A    between atoms: _235  and  _238
REMARK   94  A    between atoms: _238  and  _239
REMARK   95  A    between atoms: _244  and  _246
REMARK   96  A    between atoms: _246  and  _247
REMARK   97  A    between atoms: _246  and  _249
REMARK   98  A    between atoms: _249  and  _250
REMARK   99  A    between atoms: _256  and  _258
REMARK  100  A    between atoms: _258  and  _259
REMARK  101  A    between atoms: _261  and  _263
REMARK  102  A    between atoms: _263  and  _264
REMARK  103  A    between atoms: _263  and  _266
REMARK  104  A    between atoms: _269  and  _271
REMARK  105  A    between atoms: _271  and  _272
REMARK  106  A    between atoms: _271  and  _274
REMARK  107  A    between atoms: _274  and  _275
REMARK  108  A    between atoms: _278  and  _280
REMARK  109  A    between atoms: _280  and  _281
REMARK  110  A    between atoms: _280  and  _283
REMARK  111  A    between atoms: _286  and  _288
REMARK  112  A    between atoms: _288  and  _289
REMARK  113  A    between atoms: _288  and  _291
REMARK  114  A    between atoms: _294  and  _296
REMARK  115  A    between atoms: _296  and  _297
REMARK  116  A    between atoms: _296  and  _299
REMARK  117  A    between atoms: _299  and  _300
REMARK  118  A    between atoms: _303  and  _305
REMARK  119  A    between atoms: _305  and  _306
REMARK  120  A    between atoms: _305  and  _308
REMARK  121  A    between atoms: _311  and  _313
REMARK  122  A    between atoms: _313  and  _314
REMARK  123  A    between atoms: _313  and  _316
REMARK  124  A    between atoms: _316  and  _317
REMARK  125  A    between atoms: _323  and  _325
REMARK  126  A    between atoms: _325  and  _326
REMARK  127  A    between atoms: _325  and  _328
REMARK  128  A    between atoms: _328  and  _329
REMARK  129  A    between atoms: _335  and  _337
REMARK  130  A    between atoms: _337  and  _338
REMARK  131  A    between atoms: _340  and  _342
REMARK  132  A    between atoms: _342  and  _343
REMARK  133  A    between atoms: _342  and  _345
REMARK  134  A    between atoms: _345  and  _346
REMARK  135  A    between atoms: _346  and  _347
REMARK  136  A    between atoms: _350  and  _352
REMARK  137  A    between atoms: _352  and  _353
REMARK  138  A    between atoms: _352  and  _355
REMARK  139  A    between atoms: _355  and  _356
REMARK  140  A    between atoms: _356  and  _357
REMARK  141  A    between atoms: _357  and  _358
REMARK  142  A    between atoms: _358  and  _359
REMARK  143  A    between atoms: _363  and  _365
REMARK  144  A    between atoms: _365  and  _366
REMARK  145  A    between atoms: _365  and  _368
REMARK  146  A    between atoms: _368  and  _369
REMARK  147  A    between atoms: _372  and  _374
REMARK  148  A    between atoms: _374  and  _375
REMARK  149  A    between atoms: _374  and  _377
REMARK  150  A    between atoms: _377  and  _378
REMARK  151  A    between atoms: _383  and  _384
REMARK  152  A    between atoms: _386  and  _388
REMARK  153  A    between atoms: _388  and  _389
REMARK  154  A    between atoms: _388  and  _391
REMARK  155  A    between atoms: _391  and  _392
REMARK  156  A    between atoms: _392  and  _393
REMARK  157  A    between atoms: _398  and  _400
REMARK  158  A    between atoms: _400  and  _401
REMARK  159  A    between atoms: _400  and  _403
REMARK  160  A    between atoms: _403  and  _404
REMARK  161  A    between atoms: _407  and  _409
REMARK  162  A    between atoms: _409  and  _410
REMARK  163  A    between atoms: _409  and  _412
REMARK  164  A    between atoms: _412  and  _413
REMARK  165  A    between atoms: _416  and  _418
REMARK  166  A    between atoms: _418  and  _419
REMARK  167  A    between atoms: _418  and  _421
REMARK  168  A    between atoms: _424  and  _426
REMARK  169  A    between atoms: _426  and  _427
REMARK  170  A    between atoms: _429  and  _431
REMARK  171  A    between atoms: _431  and  _432
REMARK  172  A    between atoms: _431  and  _434
REMARK  173  A    between atoms: _438  and  _439
REMARK  174  A    between atoms: _444  and  _446
REMARK  175  A    between atoms: _446  and  _447
REMARK  176  A    between atoms: _446  and  _449
REMARK  177  A    between atoms: _449  and  _450
REMARK  178  A    between atoms: _453  and  _455
REMARK  179  A    between atoms: _455  and  _456
REMARK  180  A    between atoms: _455  and  _458
REMARK  181  A    between atoms: _461  and  _463
REMARK  182  A    between atoms: _463  and  _464
REMARK  183  A    between atoms: _463  and  _466
REMARK  184  A    between atoms: _466  and  _467
REMARK  185  A    between atoms: _467  and  _468
REMARK  186  A    between atoms: _468  and  _469
REMARK  187  A    between atoms: _478  and  _480
REMARK  188  A    between atoms: _480  and  _481
REMARK  189  A    between atoms: _480  and  _483
REMARK  190  A    between atoms: _483  and  _484
REMARK  191  A    between atoms: _484  and  _485
REMARK  192  A    between atoms: _488  and  _490
REMARK  193  A    between atoms: _490  and  _491
REMARK  194  A    between atoms: _490  and  _493
REMARK  195  A    between atoms: _493  and  _494
REMARK  196  A    between atoms: _497  and  _499
REMARK  197  A    between atoms: _499  and  _500
REMARK  198  A    between atoms: _503  and  _505
REMARK  199  A    between atoms: _505  and  _506
REMARK  200  A    between atoms: _505  and  _508
REMARK  201  A    between atoms: _508  and  _509
REMARK  202  A    between atoms: _509  and  _510
REMARK  203  A    between atoms: _512  and  _514
REMARK  204  A    between atoms: _514  and  _515
REMARK  205  A    between atoms: _514  and  _517
REMARK  206  A    between atoms: _517  and  _518
REMARK  207  A    between atoms: _520  and  _522
REMARK  208  A    between atoms: _522  and  _523
REMARK  209  A    between atoms: _522  and  _525
REMARK  210  A    between atoms: _525  and  _526
REMARK  211  A    between atoms: _528  and  _530
REMARK  212  A    between atoms: _530  and  _531
REMARK  213  A    between atoms: _530  and  _533
REMARK  214  A    between atoms: _533  and  _534
REMARK  215  A    between atoms: _534  and  _535
REMARK  216  A    between atoms: _535  and  _536
REMARK  217  A    between atoms: _545  and  _547
REMARK  218  A    between atoms: _547  and  _548
REMARK  219  A    between atoms: _547  and  _550
REMARK  220  A    between atoms: _550  and  _551
REMARK  221  A    between atoms: _556  and  _558
REMARK  222  A    between atoms: _558  and  _559
REMARK  223  A    between atoms: _558  and  _561
REMARK  224  A    between atoms: _561  and  _562
REMARK  225  A    between atoms: _565  and  _567
REMARK  226  A    between atoms: _567  and  _568
REMARK  227  A    between atoms: _567  and  _570
REMARK  228  A    between atoms: _570  and  _571
REMARK                            x       y       z     vdW  Elec       q    Type
REMARK                         _______ _______ _______ _____ _____    ______ ____
ROOT
ATOM      1  CA  PHE A   4      14.747  16.150  11.513  0.00  0.00    +0.153 C 
ENDROOT
BRANCH   1   2
ATOM      2  C   PHE A   4      15.982  15.398  11.097  0.00  0.00    +0.241 C 
ATOM      3  N   VAL A   5      17.129  15.903  11.537  0.00  0.00    -0.297 N 
ATOM      4  H   VAL A   5      17.112  16.799  12.065  0.00  0.00    +0.150 HD
ATOM      5  O   PHE A   4      15.899  14.390  10.381  0.00  0.00    -0.273 OA
BRANCH   3   6
ATOM      6  CA  VAL A   5      18.408  15.249  11.307  0.00  0.00    +0.149 C 
BRANCH   6   7
ATOM      7  C   VAL A   5      18.672  14.513  12.584  0.00  0.00    +0.241 C 
ATOM      8  O   VAL A   5      18.834  15.111  13.660  0.00  0.00    -0.273 OA
ATOM      9  N   ASN A   6      18.661  13.200  12.450  0.00  0.00    -0.298 N 
ATOM     10  H   ASN A   6      18.716  12.798  11.492  0.00  0.00    +0.150 HD
BRANCH   9  11
ATOM     11  CA  ASN A   6      18.577  12.301  13.567  0.00  0.00    +0.146 C 
BRANCH  11  12
ATOM     12  C   ASN A   6      19.971  11.894  13.975  0.00  0.00    +0.227 C 
ATOM     13  O   ASN A   6      20.613  11.121  13.247  0.00  0.00    -0.286 OA
ENDBRANCH  11  12
BRANCH  11  14
ATOM     14  CB  ASN A   6      17.772  11.057  13.135  0.00  0.00    +0.112 C 
BRANCH  14  15
ATOM     15  CG  ASN A   6      17.794   9.949  14.178  0.00  0.00    +0.222 C 
ATOM     16  OD1 ASN A   6      17.701  10.217  15.372  0.00  0.00    -0.275 OA
ATOM     17  ND2 ASN A   6      17.903   8.695  13.726  0.00  0.00    -0.329 N 
ATOM     18 HD21 ASN A   6      17.911   7.900  14.396  0.00  0.00    +0.145 HD
ATOM     19 HD22 ASN A   6      17.979   8.515  12.705  0.00  0.00    +0.145 HD
ENDBRANCH  14  15
ENDBRANCH  11  14
ENDBRANCH   9  11
ENDBRANCH   6   7
BRANCH   6  20
ATOM     20  CB  VAL A   5      19.525  16.240  11.016  0.00  0.00    +0.027 C 
ATOM     21  CG2 VAL A   5      20.867  15.488  10.763  0.00  0.00    +0.002 C 
ATOM     22  CG1 VAL A   5      19.141  17.126   9.797  0.00  0.00    +0.002 C 
ENDBRANCH   6  20
ENDBRANCH   3   6
ENDBRANCH   1   2
BRANCH   1  25
ATOM     23  C   ILE A   3      13.054  17.352  10.234  0.00  0.00    +0.241 C 
ATOM     24  O   ILE A   3      12.745  18.057  11.179  0.00  0.00    -0.273 OA
ATOM     25  N   PHE A   4      14.000  16.432  10.300  0.00  0.00    -0.297 N 
ATOM     26  H   PHE A   4      14.220  15.884   9.444  0.00  0.00    +0.150 HD
BRANCH  23  27
ATOM     27  CA  ILE A   3      12.305  17.459   8.910  0.00  0.00    +0.149 C 
BRANCH  27  29
ATOM     28  C   SER A   2      10.226  16.233   8.518  0.00  0.00    +0.243 C 
ATOM     29  N   ILE A   3      10.903  17.143   9.200  0.00  0.00    -0.297 N 
ATOM     30  H   ILE A   3      10.423  17.652   9.969  0.00  0.00    +0.150 HD
ATOM     31  O   SER A   2      10.680  15.635   7.524  0.00  0.00    -0.273 OA
BRANCH  28  32
ATOM     32  CA  SER A   2       8.835  15.951   9.039  0.00  0.00    +0.178 C 
BRANCH  32  35
ATOM     33  C   VAL A   1       7.261  16.704   7.412  0.00  0.00    +0.238 C 
ATOM     34  O   VAL A   1       7.265  17.805   7.941  0.00  0.00    -0.274 OA
ATOM     35  N   SER A   2       7.985  15.692   7.891  0.00  0.00    -0.295 N 
ATOM     36  H   SER A   2       7.942  14.748   7.456  0.00  0.00    +0.150 HD
BRANCH  33  37
ATOM     37  CA  VAL A   1       6.419  16.448   6.187  0.00  0.00    +0.145 C 
BRANCH  37  38
ATOM     38  CB  VAL A   1       6.875  17.337   4.986  0.00  0.00    +0.025 C 
ATOM     39  CG2 VAL A   1       8.339  17.121   4.645  0.00  0.00    +0.002 C 
ATOM     40  CG1 VAL A   1       6.003  17.043   3.755  0.00  0.00    +0.002 C 
ENDBRANCH  37  38
BRANCH  37  41
ATOM     41  N   VAL A   1       5.037  16.706   6.535  0.00  0.00    -0.238 NA
ATOM     42  H   VAL A   1       4.739  17.679   6.749  0.00  0.00    +0.142 HD
ENDBRANCH  37  41
ENDBRANCH  33  37
ENDBRANCH  32  35
BRANCH  32  43
ATOM     43  CB  SER A   2       8.869  14.777  10.037  0.00  0.00    +0.166 C 
BRANCH  43  44
ATOM     44  OG  SER A   2       9.397  13.649   9.369  0.00  0.00    -0.380 OA
ATOM     45  H   SER A   2      10.312  13.854   9.051  0.00  0.00    +0.211 HD
ENDBRANCH  43  44
ENDBRANCH  32  43
ENDBRANCH  28  32
ENDBRANCH  27  29
BRANCH  27  46
ATOM     46  CB  ILE A   3      12.474  18.901   8.311  0.00  0.00    +0.027 C 
ATOM     47  CG2 ILE A   3      14.008  19.248   8.103  0.00  0.00    +0.002 C 
BRANCH  46  48
ATOM     48  CG1 ILE A   3      11.632  19.045   7.037  0.00  0.00    +0.002 C 
ATOM     49  CD1 ILE A   3      11.525  20.453   6.464  0.00  0.00    +0.000 C 
ENDBRANCH  46  48
ENDBRANCH  27  46
ENDBRANCH  23  27
ENDBRANCH   1  25
BRANCH   1  50
ATOM     50  CB  PHE A   4      13.927  15.274  12.471  0.00  0.00    +0.055 C 
BRANCH  50  51
ATOM     51  CG  PHE A   4      14.612  14.974  13.772  0.00  0.00    -0.020 A 
ATOM     52  CD2 PHE A   4      14.924  15.986  14.673  0.00  0.00    -0.004 A 
ATOM     53  CE2 PHE A   4      15.558  15.692  15.896  0.00  0.00    -0.000 A 
ATOM     54  CZ  PHE A   4      15.850  14.385  16.238  0.00  0.00    -0.000 A 
ATOM     55  CE1 PHE A   4      15.526  13.364  15.369  0.00  0.00    -0.000 A 
ATOM     56  CD1 PHE A   4      14.903  13.662  14.129  0.00  0.00    -0.004 A 
ENDBRANCH  50  51
ENDBRANCH   1  50
TORSDOF 22
REMARK  Name = ../refined-set-2016/3coz/3coz_pocket.pdb
REMARK  228 active torsions:
REMARK  status: ('A' for Active; 'I' for Inactive)
REMARK    1  A    between atoms: _1  and  _3
REMARK    2  A    between atoms: _3  and  _4
REMARK    3  A    between atoms: _3  and  _6
REMARK    4  A    between atoms: _6  and  _7
REMARK    5  A    between atoms: _10  and  _12
REMARK    6  A    between atoms: _12  and  _13
REMARK    7  A    between atoms: _12  and  _15
REMARK    8  A    between atoms: _19  and  _20
REMARK    9  A    between atoms: _25  and  _27
REMARK   10  A    between atoms: _27  and  _28
REMARK   11  A    between atoms: _27  and  _30
REMARK   12  A    between atoms: _30  and  _31
REMARK   13  A    between atoms: _34  and  _36
REMARK   14  A    between atoms: _36  and  _37
REMARK   15  A    between atoms: _36  and  _39
REMARK   16  A    between atoms: _39  and  _40
REMARK   17  A    between atoms: _40  and  _41
REMARK   18  A    between atoms: _43  and  _45
REMARK   19  A    between atoms: _45  and  _46
REMARK   20  A    between atoms: _48  and  _50
REMARK   21  A    between atoms: _50  and  _51
REMARK   22  A    between atoms: _54  and  _56
REMARK   23  A    between atoms: _56  and  _57
REMARK   24  A    between atoms: _56  and  _59
REMARK   25  A    between atoms: _59  and  _60
REMARK   26  A    between atoms: _63  and  _65
REMARK   27  A    between atoms: _65  and  _66
REMARK   28  A    between atoms: _65  and  _68
REMARK   29  A    between atoms: _68  and  _69
REMARK   30  A    between atoms: _74  and  _76
REMARK   31  A    between atoms: _76  and  _77
REMARK   32  A    between atoms: _76  and  _79
REMARK   33  A    between atoms: _79  and  _80
REMARK   34  A    between atoms: _80  and  _81
REMARK   35  A    between atoms: _84  and  _86
REMARK   36  A    between atoms: _86  and  _87
REMARK   37  A    between atoms: _89  and  _91
REMARK   38  A    between atoms: _91  and  _92
REMARK   39  A    between atoms: _91  and  _94
REMARK   40  A    between atoms: _94  and  _95
REMARK   41  A    between atoms: _100  and  _102
REMARK   42  A    between atoms: _102  and  _103
REMARK   43  A    between atoms: _102  and  _105
REMARK   44  A    between atoms: _105  and  _106
REMARK   45  A    between atoms: _109  and  _111
REMARK   46  A    between atoms: _111  and  _112
REMARK   47  A    between atoms: _115  and  _117
REMARK   48  A    between atoms: _117  and  _118
REMARK   49  A    between atoms: _117  and  _120
REMARK   50  A    between atoms: _120  and  _121
REMARK   51  A    between atoms: _124  and  _126
REMARK   52  A    between atoms: _126  and  _127
REMARK   53  A    between atoms: _126  and  _129
REMARK   54  A    between atoms: _132  and  _134
REMARK   55  A    between atoms: _134  and  _135
REMARK   56  A    between atoms: _134  and  _137
REMARK   57  A    between atoms: _140  and  _142
REMARK   58  A    between atoms: _142  and  _143
REMARK   59  A    between atoms: _142  and  _145
REMARK   60  A    between atoms: _145  and  _146
REMARK   61  A    between atoms: _148  and  _150
REMARK   62  A    between atoms: _150  and  _151
REMARK   63  A    between atoms: _150  and  _153
REMARK   64  A    between atoms: _153  and  _154
REMARK   65  A    between atoms: _157  and  _159
REMARK   66  A    between atoms: _159  and  _160
REMARK   67  A    between atoms: _159  and  _162
REMARK   68  A    between atoms: _162  and  _163
REMARK   69  A    between atoms: _169  and  _171
REMARK   70  A    between atoms: _171  and  _172
REMARK   71  A    between atoms: _171  and  _174
REMARK   72  A    between atoms: _177  and  _179
REMARK   73  A    between atoms: _179  and  _180
REMARK   74  A    between atoms: _179  and  _182
REMARK   75  A    between atoms: _182  and  _183
REMARK   76  A    between atoms: _188  and  _190
REMARK   77  A    between atoms: _190  and  _191
REMARK   78  A    between atoms: _190  and  _193
REMARK   79  A    between atoms: _193  and  _194
REMARK   80  A    between atoms: _194  and  _195
REMARK   81  A    between atoms: _200  and  _202
REMARK   82  A    between atoms: _202  and  _203
REMARK   83  A    between atoms: _202  and  _205
REMARK   84  A    between atoms: _205  and  _206
REMARK   85  A    between atoms: _212  and  _214
REMARK   86  A    between atoms: _214  and  _215
REMARK   87  A    between atoms: _214  and  _217
REMARK   88  A    between atoms: _217  and  _218
REMARK   89  A    between atoms: _223  and  _224
REMARK   90  A    between atoms: _227  and  _228
REMARK   91  A    between atoms: _233  and  _235
REMARK   92  A    between atoms: _235  and  _236
REMARK   93  A    between atoms: _235  and  _238
REMARK   94  A    between atoms: _238  and  _239
REMARK   95  A    between atoms: _244  and  _246
REMARK   96  A    between atoms: _246  and  _247
REMARK   97  A    between atoms: _246  and  _249
REMARK   98  A    between atoms: _249  and  _250
REMARK   99  A    between atoms: _256  and  _258
REMARK  100  A    between atoms: _258  and  _259
REMARK  101  A    between atoms: _261  and  _263
REMARK  102  A    between atoms: _263  and  _264
REMARK  103  A    between atoms: _263  and  _266
REMARK  104  A    between atoms: _269  and  _271
REMARK  105  A    between atoms: _271  and  _272
REMARK  106  A    between atoms: _271  and  _274
REMARK  107  A    between atoms: _274  and  _275
REMARK  108  A    between atoms: _278  and  _280
REMARK  109  A    between atoms: _280  and  _281
REMARK  110  A    between atoms: _280  and  _283
REMARK  111  A    between atoms: _286  and  _288
REMARK  112  A    between atoms: _288  and  _289
REMARK  113  A    between atoms: _288  and  _291
REMARK  114  A    between atoms: _294  and  _296
REMARK  115  A    between atoms: _296  and  _297
REMARK  116  A    between atoms: _296  and  _299
REMARK  117  A    between atoms: _299  and  _300
REMARK  118  A    between atoms: _303  and  _305
REMARK  119  A    between atoms: _305  and  _306
REMARK  120  A    between atoms: _305  and  _308
REMARK  121  A    between atoms: _311  and  _313
REMARK  122  A    between atoms: _313  and  _314
REMARK  123  A    between atoms: _313  and  _316
REMARK  124  A    between atoms: _316  and  _317
REMARK  125  A    between atoms: _323  and  _325
REMARK  126  A    between atoms: _325  and  _326
REMARK  127  A    between atoms: _325  and  _328
REMARK  128  A    between atoms: _328  and  _329
REMARK  129  A    between atoms: _335  and  _337
REMARK  130  A    between atoms: _337  and  _338
REMARK  131  A    between atoms: _340  and  _342
REMARK  132  A    between atoms: _342  and  _343
REMARK  133  A    between atoms: _342  and  _345
REMARK  134  A    between atoms: _345  and  _346
REMARK  135  A    between atoms: _346  and  _347
REMARK  136  A    between atoms: _350  and  _352
REMARK  137  A    between atoms: _352  and  _353
REMARK  138  A    between atoms: _352  and  _355
REMARK  139  A    between atoms: _355  and  _356
REMARK  140  A    between atoms: _356  and  _357
REMARK  141  A    between atoms: _357  and  _358
REMARK  142  A    between atoms: _358  and  _359
REMARK  143  A    between atoms: _363  and  _365
REMARK  144  A    between atoms: _365  and  _366
REMARK  145  A    between atoms: _365  and  _368
REMARK  146  A    between atoms: _368  and  _369
REMARK  147  A    between atoms: _372  and  _374
REMARK  148  A    between atoms: _374  and  _375
REMARK  149  A    between atoms: _374  and  _377
REMARK  150  A    between atoms: _377  and  _378
REMARK  151  A    between atoms: _383  and  _384
REMARK  152  A    between atoms: _386  and  _388
REMARK  153  A    between atoms: _388  and  _389
REMARK  154  A    between atoms: _388  and  _391
REMARK  155  A    between atoms: _391  and  _392
REMARK  156  A    between atoms: _392  and  _393
REMARK  157  A    between atoms: _398  and  _400
REMARK  158  A    between atoms: _400  and  _401
REMARK  159  A    between atoms: _400  and  _403
REMARK  160  A    between atoms: _403  and  _404
REMARK  161  A    between atoms: _407  and  _409
REMARK  162  A    between atoms: _409  and  _410
REMARK  163  A    between atoms: _409  and  _412
REMARK  164  A    between atoms: _412  and  _413
REMARK  165  A    between atoms: _416  and  _418
REMARK  166  A    between atoms: _418  and  _419
REMARK  167  A    between atoms: _418  and  _421
REMARK  168  A    between atoms: _424  and  _426
REMARK  169  A    between atoms: _426  and  _427
REMARK  170  A    between atoms: _429  and  _431
REMARK  171  A    between atoms: _431  and  _432
REMARK  172  A    between atoms: _431  and  _434
REMARK  173  A    between atoms: _438  and  _439
REMARK  174  A    between atoms: _444  and  _446
REMARK  175  A    between atoms: _446  and  _447
REMARK  176  A    between atoms: _446  and  _449
REMARK  177  A    between atoms: _449  and  _450
REMARK  178  A    between atoms: _453  and  _455
REMARK  179  A    between atoms: _455  and  _456
REMARK  180  A    between atoms: _455  and  _458
REMARK  181  A    between atoms: _461  and  _463
REMARK  182  A    between atoms: _463  and  _464
REMARK  183  A    between atoms: _463  and  _466
REMARK  184  A    between atoms: _466  and  _467
REMARK  185  A    between atoms: _467  and  _468
REMARK  186  A    between atoms: _468  and  _469
REMARK  187  A    between atoms: _478  and  _480
REMARK  188  A    between atoms: _480  and  _481
REMARK  189  A    between atoms: _480  and  _483
REMARK  190  A    between atoms: _483  and  _484
REMARK  191  A    between atoms: _484  and  _485
REMARK  192  A    between atoms: _488  and  _490
REMARK  193  A    between atoms: _490  and  _491
REMARK  194  A    between atoms: _490  and  _493
REMARK  195  A    between atoms: _493  and  _494
REMARK  196  A    between atoms: _497  and  _499
REMARK  197  A    between atoms: _499  and  _500
REMARK  198  A    between atoms: _503  and  _505
REMARK  199  A    between atoms: _505  and  _506
REMARK  200  A    between atoms: _505  and  _508
REMARK  201  A    between atoms: _508  and  _509
REMARK  202  A    between atoms: _509  and  _510
REMARK  203  A    between atoms: _512  and  _514
REMARK  204  A    between atoms: _514  and  _515
REMARK  205  A    between atoms: _514  and  _517
REMARK  206  A    between atoms: _517  and  _518
REMARK  207  A    between atoms: _520  and  _522
REMARK  208  A    between atoms: _522  and  _523
REMARK  209  A    between atoms: _522  and  _525
REMARK  210  A    between atoms: _525  and  _526
REMARK  211  A    between atoms: _528  and  _530
REMARK  212  A    between atoms: _530  and  _531
REMARK  213  A    between atoms: _530  and  _533
REMARK  214  A    between atoms: _533  and  _534
REMARK  215  A    between atoms: _534  and  _535
REMARK  216  A    between atoms: _535  and  _536
REMARK  217  A    between atoms: _545  and  _547
REMARK  218  A    between atoms: _547  and  _548
REMARK  219  A    between atoms: _547  and  _550
REMARK  220  A    between atoms: _550  and  _551
REMARK  221  A    between atoms: _556  and  _558
REMARK  222  A    between atoms: _558  and  _559
REMARK  223  A    between atoms: _558  and  _561
REMARK  224  A    between atoms: _561  and  _562
REMARK  225  A    between atoms: _565  and  _567
REMARK  226  A    between atoms: _567  and  _568
REMARK  227  A    between atoms: _567  and  _570
REMARK  228  A    between atoms: _570  and  _571
REMARK                            x       y       z     vdW  Elec       q    Type
REMARK                         _______ _______ _______ _____ _____    ______ ____
ROOT
ATOM      1  C   GLN A   1      22.757   7.279  12.012  0.00  0.00    +0.238 C 
ATOM      2  N   PHE A   2      23.419   8.324  12.508  0.00  0.00    -0.298 N 
ATOM      3  H   PHE A   2      22.945   8.923  13.214  0.00  0.00    +0.150 HD
ATOM      4  O   GLN A   1      23.194   6.563  11.097  0.00  0.00    -0.274 OA
ENDROOT
BRANCH   1   5
ATOM      5  CA  GLN A   1      21.390   6.999  12.648  0.00  0.00    +0.145 C 
BRANCH   5   6
ATOM      6  N   GLN A   1      21.127   7.823  13.840  0.00  0.00    -0.238 NA
ATOM      7  H   GLN A   1      20.657   8.744  13.729  0.00  0.00    +0.142 HD
ENDBRANCH   5   6
BRANCH   5   8
ATOM      8  CB  GLN A   1      20.258   7.124  11.629  0.00  0.00    +0.036 C 
BRANCH   8   9
ATOM      9  CG  GLN A   1      20.050   8.519  11.029  0.00  0.00    +0.087 C 
BRANCH   9  10
ATOM     10  CD  GLN A   1      18.879   8.561  10.044  0.00  0.00    +0.219 C 
ATOM     11  NE2 GLN A   1      17.651   8.625  10.570  0.00  0.00    -0.329 N 
ATOM     12 HE21 GLN A   1      17.529   8.658  11.602  0.00  0.00    +0.145 HD
ATOM     13 HE22 GLN A   1      16.819   8.642   9.947  0.00  0.00    +0.145 HD
ATOM     14  OE1 GLN A   1      19.080   8.520   8.821  0.00  0.00    -0.275 OA
ENDBRANCH   9  10
ENDBRANCH   8   9
ENDBRANCH   5   8
ENDBRANCH   1   5
BRANCH   2  15
ATOM     15  CA  PHE A   2      24.784   8.666  12.103  0.00  0.00    +0.141 C 
BRANCH  15  16
ATOM     16  C   PHE A   2      25.785   7.950  13.009  0.00  0.00    +0.227 C 
ATOM     17  O   PHE A   2      25.630   7.932  14.230  0.00  0.00    -0.286 OA
ENDBRANCH  15  16
BRANCH  15  18
ATOM     18  CB  PHE A   2      24.998  10.190  12.115  0.00  0.00    +0.054 C 
BRANCH  18  19
ATOM     19  CG  PHE A   2      24.266  10.916  11.007  0.00  0.00    -0.020 A 
ATOM     20  CD2 PHE A   2      22.946  11.346  11.183  0.00  0.00    -0.004 A 
ATOM     21  CE2 PHE A   2      22.266  12.014  10.159  0.00  0.00    -0.000 A 
ATOM     22  CZ  PHE A   2      22.905  12.259   8.938  0.00  0.00    -0.000 A 
ATOM     23  CE1 PHE A   2      24.222  11.835   8.747  0.00  0.00    -0.000 A 
ATOM     24  CD1 PHE A   2      24.892  11.161   9.783  0.00  0.00    -0.004 A 
ENDBRANCH  18  19
ENDBRANCH  15  18
ENDBRANCH   2  15
TORSDOF 9
REMARK  Name = ../refined-set-2016/3coz/3coz_pocket.pdb
REMARK  228 active torsions:
REMARK  status: ('A' for Active; 'I' for Inactive)
REMARK    1  A    between atoms: _1  and  _3
REMARK    2  A    between atoms: _3  and  _4
REMARK    3  A    between atoms: _3  and  _6
REMARK    4  A    between atoms: _6  and  _7
REMARK    5  A    between atoms: _10  and  _12
REMARK    6  A    between atoms: _12  and  _13
REMARK    7  A    between atoms: _12  and  _15
REMARK    8  A    between atoms: _19  and  _20
REMARK    9  A    between atoms: _25  and  _27
REMARK   10  A    between atoms: _27  and  _28
REMARK   11  A    between atoms: _27  and  _30
REMARK   12  A    between atoms: _30  and  _31
REMARK   13  A    between atoms: _34  and  _36
REMARK   14  A    between atoms: _36  and  _37
REMARK   15  A    between atoms: _36  and  _39
REMARK   16  A    between atoms: _39  and  _40
REMARK   17  A    between atoms: _40  and  _41
REMARK   18  A    between atoms: _43  and  _45
REMARK   19  A    between atoms: _45  and  _46
REMARK   20  A    between atoms: _48  and  _50
REMARK   21  A    between atoms: _50  and  _51
REMARK   22  A    between atoms: _54  and  _56
REMARK   23  A    between atoms: _56  and  _57
REMARK   24  A    between atoms: _56  and  _59
REMARK   25  A    between atoms: _59  and  _60
REMARK   26  A    between atoms: _63  and  _65
REMARK   27  A    between atoms: _65  and  _66
REMARK   28  A    between atoms: _65  and  _68
REMARK   29  A    between atoms: _68  and  _69
REMARK   30  A    between atoms: _74  and  _76
REMARK   31  A    between atoms: _76  and  _77
REMARK   32  A    between atoms: _76  and  _79
REMARK   33  A    between atoms: _79  and  _80
REMARK   34  A    between atoms: _80  and  _81
REMARK   35  A    between atoms: _84  and  _86
REMARK   36  A    between atoms: _86  and  _87
REMARK   37  A    between atoms: _89  and  _91
REMARK   38  A    between atoms: _91  and  _92
REMARK   39  A    between atoms: _91  and  _94
REMARK   40  A    between atoms: _94  and  _95
REMARK   41  A    between atoms: _100  and  _102
REMARK   42  A    between atoms: _102  and  _103
REMARK   43  A    between atoms: _102  and  _105
REMARK   44  A    between atoms: _105  and  _106
REMARK   45  A    between atoms: _109  and  _111
REMARK   46  A    between atoms: _111  and  _112
REMARK   47  A    between atoms: _115  and  _117
REMARK   48  A    between atoms: _117  and  _118
REMARK   49  A    between atoms: _117  and  _120
REMARK   50  A    between atoms: _120  and  _121
REMARK   51  A    between atoms: _124  and  _126
REMARK   52  A    between atoms: _126  and  _127
REMARK   53  A    between atoms: _126  and  _129
REMARK   54  A    between atoms: _132  and  _134
REMARK   55  A    between atoms: _134  and  _135
REMARK   56  A    between atoms: _134  and  _137
REMARK   57  A    between atoms: _140  and  _142
REMARK   58  A    between atoms: _142  and  _143
REMARK   59  A    between atoms: _142  and  _145
REMARK   60  A    between atoms: _145  and  _146
REMARK   61  A    between atoms: _148  and  _150
REMARK   62  A    between atoms: _150  and  _151
REMARK   63  A    between atoms: _150  and  _153
REMARK   64  A    between atoms: _153  and  _154
REMARK   65  A    between atoms: _157  and  _159
REMARK   66  A    between atoms: _159  and  _160
REMARK   67  A    between atoms: _159  and  _162
REMARK   68  A    between atoms: _162  and  _163
REMARK   69  A    between atoms: _169  and  _171
REMARK   70  A    between atoms: _171  and  _172
REMARK   71  A    between atoms: _171  and  _174
REMARK   72  A    between atoms: _177  and  _179
REMARK   73  A    between atoms: _179  and  _180
REMARK   74  A    between atoms: _179  and  _182
REMARK   75  A    between atoms: _182  and  _183
REMARK   76  A    between atoms: _188  and  _190
REMARK   77  A    between atoms: _190  and  _191
REMARK   78  A    between atoms: _190  and  _193
REMARK   79  A    between atoms: _193  and  _194
REMARK   80  A    between atoms: _194  and  _195
REMARK   81  A    between atoms: _200  and  _202
REMARK   82  A    between atoms: _202  and  _203
REMARK   83  A    between atoms: _202  and  _205
REMARK   84  A    between atoms: _205  and  _206
REMARK   85  A    between atoms: _212  and  _214
REMARK   86  A    between atoms: _214  and  _215
REMARK   87  A    between atoms: _214  and  _217
REMARK   88  A    between atoms: _217  and  _218
REMARK   89  A    between atoms: _223  and  _224
REMARK   90  A    between atoms: _227  and  _228
REMARK   91  A    between atoms: _233  and  _235
REMARK   92  A    between atoms: _235  and  _236
REMARK   93  A    between atoms: _235  and  _238
REMARK   94  A    between atoms: _238  and  _239
REMARK   95  A    between atoms: _244  and  _246
REMARK   96  A    between atoms: _246  and  _247
REMARK   97  A    between atoms: _246  and  _249
REMARK   98  A    between atoms: _249  and  _250
REMARK   99  A    between atoms: _256  and  _258
REMARK  100  A    between atoms: _258  and  _259
REMARK  101  A    between atoms: _261  and  _263
REMARK  102  A    between atoms: _263  and  _264
REMARK  103  A    between atoms: _263  and  _266
REMARK  104  A    between atoms: _269  and  _271
REMARK  105  A    between atoms: _271  and  _272
REMARK  106  A    between atoms: _271  and  _274
REMARK  107  A    between atoms: _274  and  _275
REMARK  108  A    between atoms: _278  and  _280
REMARK  109  A    between atoms: _280  and  _281
REMARK  110  A    between atoms: _280  and  _283
REMARK  111  A    between atoms: _286  and  _288
REMARK  112  A    between atoms: _288  and  _289
REMARK  113  A    between atoms: _288  and  _291
REMARK  114  A    between atoms: _294  and  _296
REMARK  115  A    between atoms: _296  and  _297
REMARK  116  A    between atoms: _296  and  _299
REMARK  117  A    between atoms: _299  and  _300
REMARK  118  A    between atoms: _303  and  _305
REMARK  119  A    between atoms: _305  and  _306
REMARK  120  A    between atoms: _305  and  _308
REMARK  121  A    between atoms: _311  and  _313
REMARK  122  A    between atoms: _313  and  _314
REMARK  123  A    between atoms: _313  and  _316
REMARK  124  A    between atoms: _316  and  _317
REMARK  125  A    between atoms: _323  and  _325
REMARK  126  A    between atoms: _325  and  _326
REMARK  127  A    between atoms: _325  and  _328
REMARK  128  A    between atoms: _328  and  _329
REMARK  129  A    between atoms: _335  and  _337
REMARK  130  A    between atoms: _337  and  _338
REMARK  131  A    between atoms: _340  and  _342
REMARK  132  A    between atoms: _342  and  _343
REMARK  133  A    between atoms: _342  and  _345
REMARK  134  A    between atoms: _345  and  _346
REMARK  135  A    between atoms: _346  and  _347
REMARK  136  A    between atoms: _350  and  _352
REMARK  137  A    between atoms: _352  and  _353
REMARK  138  A    between atoms: _352  and  _355
REMARK  139  A    between atoms: _355  and  _356
REMARK  140  A    between atoms: _356  and  _357
REMARK  141  A    between atoms: _357  and  _358
REMARK  142  A    between atoms: _358  and  _359
REMARK  143  A    between atoms: _363  and  _365
REMARK  144  A    between atoms: _365  and  _366
REMARK  145  A    between atoms: _365  and  _368
REMARK  146  A    between atoms: _368  and  _369
REMARK  147  A    between atoms: _372  and  _374
REMARK  148  A    between atoms: _374  and  _375
REMARK  149  A    between atoms: _374  and  _377
REMARK  150  A    between atoms: _377  and  _378
REMARK  151  A    between atoms: _383  and  _384
REMARK  152  A    between atoms: _386  and  _388
REMARK  153  A    between atoms: _388  and  _389
REMARK  154  A    between atoms: _388  and  _391
REMARK  155  A    between atoms: _391  and  _392
REMARK  156  A    between atoms: _392  and  _393
REMARK  157  A    between atoms: _398  and  _400
REMARK  158  A    between atoms: _400  and  _401
REMARK  159  A    between atoms: _400  and  _403
REMARK  160  A    between atoms: _403  and  _404
REMARK  161  A    between atoms: _407  and  _409
REMARK  162  A    between atoms: _409  and  _410
REMARK  163  A    between atoms: _409  and  _412
REMARK  164  A    between atoms: _412  and  _413
REMARK  165  A    between atoms: _416  and  _418
REMARK  166  A    between atoms: _418  and  _419
REMARK  167  A    between atoms: _418  and  _421
REMARK  168  A    between atoms: _424  and  _426
REMARK  169  A    between atoms: _426  and  _427
REMARK  170  A    between atoms: _429  and  _431
REMARK  171  A    between atoms: _431  and  _432
REMARK  172  A    between atoms: _431  and  _434
REMARK  173  A    between atoms: _438  and  _439
REMARK  174  A    between atoms: _444  and  _446
REMARK  175  A    between atoms: _446  and  _447
REMARK  176  A    between atoms: _446  and  _449
REMARK  177  A    between atoms: _449  and  _450
REMARK  178  A    between atoms: _453  and  _455
REMARK  179  A    between atoms: _455  and  _456
REMARK  180  A    between atoms: _455  and  _458
REMARK  181  A    between atoms: _461  and  _463
REMARK  182  A    between atoms: _463  and  _464
REMARK  183  A    between atoms: _463  and  _466
REMARK  184  A    between atoms: _466  and  _467
REMARK  185  A    between atoms: _467  and  _468
REMARK  186  A    between atoms: _468  and  _469
REMARK  187  A    between atoms: _478  and  _480
REMARK  188  A    between atoms: _480  and  _481
REMARK  189  A    between atoms: _480  and  _483
REMARK  190  A    between atoms: _483  and  _484
REMARK  191  A    between atoms: _484  and  _485
REMARK  192  A    between atoms: _488  and  _490
REMARK  193  A    between atoms: _490  and  _491
REMARK  194  A    between atoms: _490  and  _493
REMARK  195  A    between atoms: _493  and  _494
REMARK  196  A    between atoms: _497  and  _499
REMARK  197  A    between atoms: _499  and  _500
REMARK  198  A    between atoms: _503  and  _505
REMARK  199  A    between atoms: _505  and  _506
REMARK  200  A    between atoms: _505  and  _508
REMARK  201  A    between atoms: _508  and  _509
REMARK  202  A    between atoms: _509  and  _510
REMARK  203  A    between atoms: _512  and  _514
REMARK  204  A    between atoms: _514  and  _515
REMARK  205  A    between atoms: _514  and  _517
REMARK  206  A    between atoms: _517  and  _518
REMARK  207  A    between atoms: _520  and  _522
REMARK  208  A    between atoms: _522  and  _523
REMARK  209  A    between atoms: _522  and  _525
REMARK  210  A    between atoms: _525  and  _526
REMARK  211  A    between atoms: _528  and  _530
REMARK  212  A    between atoms: _530  and  _531
REMARK  213  A    between atoms: _530  and  _533
REMARK  214  A    between atoms: _533  and  _534
REMARK  215  A    between atoms: _534  and  _535
REMARK  216  A    between atoms: _535  and  _536
REMARK  217  A    between atoms: _545  and  _547
REMARK  218  A    between atoms: _547  and  _548
REMARK  219  A    between atoms: _547  and  _550
REMARK  220  A    between atoms: _550  and  _551
REMARK  221  A    between atoms: _556  and  _558
REMARK  222  A    between atoms: _558  and  _559
REMARK  223  A    between atoms: _558  and  _561
REMARK  224  A    between atoms: _561  and  _562
REMARK  225  A    between atoms: _565  and  _567
REMARK  226  A    between atoms: _567  and  _568
REMARK  227  A    between atoms: _567  and  _570
REMARK  228  A    between atoms: _570  and  _571
REMARK                            x       y       z     vdW  Elec       q    Type
REMARK                         _______ _______ _______ _____ _____    ______ ____
ROOT
ATOM      1  CA  TYR A   1      24.805  16.752   6.742  0.00  0.00    +0.149 C 
ENDROOT
BRANCH   1   2
ATOM      2  C   TYR A   1      24.257  18.133   6.347  0.00  0.00    +0.242 C 
ATOM      3  O   TYR A   1      24.193  19.028   7.197  0.00  0.00    -0.273 OA
ATOM      4  N   PRO A   2      23.882  18.313   5.056  0.00  0.00    -0.273 N 
ATOM      5  CA  PRO A   2      23.436  19.630   4.564  0.00  0.00    +0.140 C 
ATOM      6  CB  PRO A   2      23.221  19.409   3.059  0.00  0.00    +0.030 C 
ATOM      7  CG  PRO A   2      23.090  17.933   2.885  0.00  0.00    +0.024 C 
ATOM      8  CD  PRO A   2      23.866  17.290   3.989  0.00  0.00    +0.094 C 
BRANCH   5   9
ATOM      9  C   PRO A   2      22.137  20.090   5.217  0.00  0.00    +0.227 C 
ATOM     10  O   PRO A   2      21.149  19.344   5.249  0.00  0.00    -0.286 OA
ENDBRANCH   5   9
ENDBRANCH   1   2
BRANCH   1  11
ATOM     11  N   TYR A   1      26.076  16.863   7.460  0.00  0.00    -0.238 NA
ATOM     12  H   TYR A   1      26.123  16.594   8.464  0.00  0.00    +0.142 HD
ENDBRANCH   1  11
BRANCH   1  13
ATOM     13  CB  TYR A   1      23.761  15.945   7.530  0.00  0.00    +0.053 C 
BRANCH  13  14
ATOM     14  CG  TYR A   1      22.670  15.438   6.615  0.00  0.00    -0.020 A 
ATOM     15  CD2 TYR A   1      21.482  16.153   6.447  0.00  0.00    -0.001 A 
ATOM     16  CE2 TYR A   1      20.489  15.704   5.573  0.00  0.00    +0.036 A 
ATOM     17  CZ  TYR A   1      20.690  14.533   4.853  0.00  0.00    +0.134 A 
ATOM     18  CE1 TYR A   1      21.870  13.812   4.988  0.00  0.00    +0.036 A 
ATOM     19  CD1 TYR A   1      22.854  14.269   5.864  0.00  0.00    -0.001 A 
BRANCH  17  20
ATOM     20  OH  TYR A   1      19.722  14.084   3.990  0.00  0.00    -0.506 OA
ATOM     21  HH  TYR A   1      20.026  13.244   3.563  0.00  0.00    +0.292 HD
ENDBRANCH  17  20
ENDBRANCH  13  14
ENDBRANCH   1  13
TORSDOF 6
REMARK  Name = ../refined-set-2016/3coz/3coz_pocket.pdb
REMARK  228 active torsions:
REMARK  status: ('A' for Active; 'I' for Inactive)
REMARK    1  A    between atoms: _1  and  _3
REMARK    2  A    between atoms: _3  and  _4
REMARK    3  A    between atoms: _3  and  _6
REMARK    4  A    between atoms: _6  and  _7
REMARK    5  A    between atoms: _10  and  _12
REMARK    6  A    between atoms: _12  and  _13
REMARK    7  A    between atoms: _12  and  _15
REMARK    8  A    between atoms: _19  and  _20
REMARK    9  A    between atoms: _25  and  _27
REMARK   10  A    between atoms: _27  and  _28
REMARK   11  A    between atoms: _27  and  _30
REMARK   12  A    between atoms: _30  and  _31
REMARK   13  A    between atoms: _34  and  _36
REMARK   14  A    between atoms: _36  and  _37
REMARK   15  A    between atoms: _36  and  _39
REMARK   16  A    between atoms: _39  and  _40
REMARK   17  A    between atoms: _40  and  _41
REMARK   18  A    between atoms: _43  and  _45
REMARK   19  A    between atoms: _45  and  _46
REMARK   20  A    between atoms: _48  and  _50
REMARK   21  A    between atoms: _50  and  _51
REMARK   22  A    between atoms: _54  and  _56
REMARK   23  A    between atoms: _56  and  _57
REMARK   24  A    between atoms: _56  and  _59
REMARK   25  A    between atoms: _59  and  _60
REMARK   26  A    between atoms: _63  and  _65
REMARK   27  A    between atoms: _65  and  _66
REMARK   28  A    between atoms: _65  and  _68
REMARK   29  A    between atoms: _68  and  _69
REMARK   30  A    between atoms: _74  and  _76
REMARK   31  A    between atoms: _76  and  _77
REMARK   32  A    between atoms: _76  and  _79
REMARK   33  A    between atoms: _79  and  _80
REMARK   34  A    between atoms: _80  and  _81
REMARK   35  A    between atoms: _84  and  _86
REMARK   36  A    between atoms: _86  and  _87
REMARK   37  A    between atoms: _89  and  _91
REMARK   38  A    between atoms: _91  and  _92
REMARK   39  A    between atoms: _91  and  _94
REMARK   40  A    between atoms: _94  and  _95
REMARK   41  A    between atoms: _100  and  _102
REMARK   42  A    between atoms: _102  and  _103
REMARK   43  A    between atoms: _102  and  _105
REMARK   44  A    between atoms: _105  and  _106
REMARK   45  A    between atoms: _109  and  _111
REMARK   46  A    between atoms: _111  and  _112
REMARK   47  A    between atoms: _115  and  _117
REMARK   48  A    between atoms: _117  and  _118
REMARK   49  A    between atoms: _117  and  _120
REMARK   50  A    between atoms: _120  and  _121
REMARK   51  A    between atoms: _124  and  _126
REMARK   52  A    between atoms: _126  and  _127
REMARK   53  A    between atoms: _126  and  _129
REMARK   54  A    between atoms: _132  and  _134
REMARK   55  A    between atoms: _134  and  _135
REMARK   56  A    between atoms: _134  and  _137
REMARK   57  A    between atoms: _140  and  _142
REMARK   58  A    between atoms: _142  and  _143
REMARK   59  A    between atoms: _142  and  _145
REMARK   60  A    between atoms: _145  and  _146
REMARK   61  A    between atoms: _148  and  _150
REMARK   62  A    between atoms: _150  and  _151
REMARK   63  A    between atoms: _150  and  _153
REMARK   64  A    between atoms: _153  and  _154
REMARK   65  A    between atoms: _157  and  _159
REMARK   66  A    between atoms: _159  and  _160
REMARK   67  A    between atoms: _159  and  _162
REMARK   68  A    between atoms: _162  and  _163
REMARK   69  A    between atoms: _169  and  _171
REMARK   70  A    between atoms: _171  and  _172
REMARK   71  A    between atoms: _171  and  _174
REMARK   72  A    between atoms: _177  and  _179
REMARK   73  A    between atoms: _179  and  _180
REMARK   74  A    between atoms: _179  and  _182
REMARK   75  A    between atoms: _182  and  _183
REMARK   76  A    between atoms: _188  and  _190
REMARK   77  A    between atoms: _190  and  _191
REMARK   78  A    between atoms: _190  and  _193
REMARK   79  A    between atoms: _193  and  _194
REMARK   80  A    between atoms: _194  and  _195
REMARK   81  A    between atoms: _200  and  _202
REMARK   82  A    between atoms: _202  and  _203
REMARK   83  A    between atoms: _202  and  _205
REMARK   84  A    between atoms: _205  and  _206
REMARK   85  A    between atoms: _212  and  _214
REMARK   86  A    between atoms: _214  and  _215
REMARK   87  A    between atoms: _214  and  _217
REMARK   88  A    between atoms: _217  and  _218
REMARK   89  A    between atoms: _223  and  _224
REMARK   90  A    between atoms: _227  and  _228
REMARK   91  A    between atoms: _233  and  _235
REMARK   92  A    between atoms: _235  and  _236
REMARK   93  A    between atoms: _235  and  _238
REMARK   94  A    between atoms: _238  and  _239
REMARK   95  A    between atoms: _244  and  _246
REMARK   96  A    between atoms: _246  and  _247
REMARK   97  A    between atoms: _246  and  _249
REMARK   98  A    between atoms: _249  and  _250
REMARK   99  A    between atoms: _256  and  _258
REMARK  100  A    between atoms: _258  and  _259
REMARK  101  A    between atoms: _261  and  _263
REMARK  102  A    between atoms: _263  and  _264
REMARK  103  A    between atoms: _263  and  _266
REMARK  104  A    between atoms: _269  and  _271
REMARK  105  A    between atoms: _271  and  _272
REMARK  106  A    between atoms: _271  and  _274
REMARK  107  A    between atoms: _274  and  _275
REMARK  108  A    between atoms: _278  and  _280
REMARK  109  A    between atoms: _280  and  _281
REMARK  110  A    between atoms: _280  and  _283
REMARK  111  A    between atoms: _286  and  _288
REMARK  112  A    between atoms: _288  and  _289
REMARK  113  A    between atoms: _288  and  _291
REMARK  114  A    between atoms: _294  and  _296
REMARK  115  A    between atoms: _296  and  _297
REMARK  116  A    between atoms: _296  and  _299
REMARK  117  A    between atoms: _299  and  _300
REMARK  118  A    between atoms: _303  and  _305
REMARK  119  A    between atoms: _305  and  _306
REMARK  120  A    between atoms: _305  and  _308
REMARK  121  A    between atoms: _311  and  _313
REMARK  122  A    between atoms: _313  and  _314
REMARK  123  A    between atoms: _313  and  _316
REMARK  124  A    between atoms: _316  and  _317
REMARK  125  A    between atoms: _323  and  _325
REMARK  126  A    between atoms: _325  and  _326
REMARK  127  A    between atoms: _325  and  _328
REMARK  128  A    between atoms: _328  and  _329
REMARK  129  A    between atoms: _335  and  _337
REMARK  130  A    between atoms: _337  and  _338
REMARK  131  A    between atoms: _340  and  _342
REMARK  132  A    between atoms: _342  and  _343
REMARK  133  A    between atoms: _342  and  _345
REMARK  134  A    between atoms: _345  and  _346
REMARK  135  A    between atoms: _346  and  _347
REMARK  136  A    between atoms: _350  and  _352
REMARK  137  A    between atoms: _352  and  _353
REMARK  138  A    between atoms: _352  and  _355
REMARK  139  A    between atoms: _355  and  _356
REMARK  140  A    between atoms: _356  and  _357
REMARK  141  A    between atoms: _357  and  _358
REMARK  142  A    between atoms: _358  and  _359
REMARK  143  A    between atoms: _363  and  _365
REMARK  144  A    between atoms: _365  and  _366
REMARK  145  A    between atoms: _365  and  _368
REMARK  146  A    between atoms: _368  and  _369
REMARK  147  A    between atoms: _372  and  _374
REMARK  148  A    between atoms: _374  and  _375
REMARK  149  A    between atoms: _374  and  _377
REMARK  150  A    between atoms: _377  and  _378
REMARK  151  A    between atoms: _383  and  _384
REMARK  152  A    between atoms: _386  and  _388
REMARK  153  A    between atoms: _388  and  _389
REMARK  154  A    between atoms: _388  and  _391
REMARK  155  A    between atoms: _391  and  _392
REMARK  156  A    between atoms: _392  and  _393
REMARK  157  A    between atoms: _398  and  _400
REMARK  158  A    between atoms: _400  and  _401
REMARK  159  A    between atoms: _400  and  _403
REMARK  160  A    between atoms: _403  and  _404
REMARK  161  A    between atoms: _407  and  _409
REMARK  162  A    between atoms: _409  and  _410
REMARK  163  A    between atoms: _409  and  _412
REMARK  164  A    between atoms: _412  and  _413
REMARK  165  A    between atoms: _416  and  _418
REMARK  166  A    between atoms: _418  and  _419
REMARK  167  A    between atoms: _418  and  _421
REMARK  168  A    between atoms: _424  and  _426
REMARK  169  A    between atoms: _426  and  _427
REMARK  170  A    between atoms: _429  and  _431
REMARK  171  A    between atoms: _431  and  _432
REMARK  172  A    between atoms: _431  and  _434
REMARK  173  A    between atoms: _438  and  _439
REMARK  174  A    between atoms: _444  and  _446
REMARK  175  A    between atoms: _446  and  _447
REMARK  176  A    between atoms: _446  and  _449
REMARK  177  A    between atoms: _449  and  _450
REMARK  178  A    between atoms: _453  and  _455
REMARK  179  A    between atoms: _455  and  _456
REMARK  180  A    between atoms: _455  and  _458
REMARK  181  A    between atoms: _461  and  _463
REMARK  182  A    between atoms: _463  and  _464
REMARK  183  A    between atoms: _463  and  _466
REMARK  184  A    between atoms: _466  and  _467
REMARK  185  A    between atoms: _467  and  _468
REMARK  186  A    between atoms: _468  and  _469
REMARK  187  A    between atoms: _478  and  _480
REMARK  188  A    between atoms: _480  and  _481
REMARK  189  A    between atoms: _480  and  _483
REMARK  190  A    between atoms: _483  and  _484
REMARK  191  A    between atoms: _484  and  _485
REMARK  192  A    between atoms: _488  and  _490
REMARK  193  A    between atoms: _490  and  _491
REMARK  194  A    between atoms: _490  and  _493
REMARK  195  A    between atoms: _493  and  _494
REMARK  196  A    between atoms: _497  and  _499
REMARK  197  A    between atoms: _499  and  _500
REMARK  198  A    between atoms: _503  and  _505
REMARK  199  A    between atoms: _505  and  _506
REMARK  200  A    between atoms: _505  and  _508
REMARK  201  A    between atoms: _508  and  _509
REMARK  202  A    between atoms: _509  and  _510
REMARK  203  A    between atoms: _512  and  _514
REMARK  204  A    between atoms: _514  and  _515
REMARK  205  A    between atoms: _514  and  _517
REMARK  206  A    between atoms: _517  and  _518
REMARK  207  A    between atoms: _520  and  _522
REMARK  208  A    between atoms: _522  and  _523
REMARK  209  A    between atoms: _522  and  _525
REMARK  210  A    between atoms: _525  and  _526
REMARK  211  A    between atoms: _528  and  _530
REMARK  212  A    between atoms: _530  and  _531
REMARK  213  A    between atoms: _530  and  _533
REMARK  214  A    between atoms: _533  and  _534
REMARK  215  A    between atoms: _534  and  _535
REMARK  216  A    between atoms: _535  and  _536
REMARK  217  A    between atoms: _545  and  _547
REMARK  218  A    between atoms: _547  and  _548
REMARK  219  A    between atoms: _547  and  _550
REMARK  220  A    between atoms: _550  and  _551
REMARK  221  A    between atoms: _556  and  _558
REMARK  222  A    between atoms: _558  and  _559
REMARK  223  A    between atoms: _558  and  _561
REMARK  224  A    between atoms: _561  and  _562
REMARK  225  A    between atoms: _565  and  _567
REMARK  226  A    between atoms: _567  and  _568
REMARK  227  A    between atoms: _567  and  _570
REMARK  228  A    between atoms: _570  and  _571
REMARK                            x       y       z     vdW  Elec       q    Type
REMARK                         _______ _______ _______ _____ _____    ______ ____
ROOT
ATOM      1  C   HIS A   1      21.238   2.615  11.292  0.00  0.00    +0.239 C 
ATOM      2  O   HIS A   1      20.457   3.540  11.502  0.00  0.00    -0.274 OA
ATOM      3  N   PHE A   2      20.813   1.386  10.992  0.00  0.00    -0.298 N 
ATOM      4  H   PHE A   2      21.483   0.595  10.910  0.00  0.00    +0.150 HD
ENDROOT
BRANCH   1   5
ATOM      5  CA  HIS A   1      22.758   2.872  11.319  0.00  0.00    +0.151 C 
BRANCH   5   6
ATOM      6  N   HIS A   1      23.476   1.912  12.145  0.00  0.00    -0.238 NA
ATOM      7  H   HIS A   1      24.240   1.341  11.730  0.00  0.00    +0.142 HD
ENDBRANCH   5   6
BRANCH   5   8
ATOM      8  CB  HIS A   1      23.282   2.895   9.869  0.00  0.00    +0.074 C 
BRANCH   8   9
ATOM      9  CG  HIS A   1      22.461   3.750   8.945  0.00  0.00    +0.082 A 
ATOM     10  ND1 HIS A   1      22.369   5.119   9.078  0.00  0.00    -0.227 NA
ATOM     11  CE1 HIS A   1      21.569   5.603   8.144  0.00  0.00    +0.199 A 
ATOM     12  NE2 HIS A   1      21.126   4.594   7.416  0.00  0.00    -0.221 NA
ATOM     13  CD2 HIS A   1      21.669   3.425   7.894  0.00  0.00    +0.115 A 
ENDBRANCH   8   9
ENDBRANCH   5   8
ENDBRANCH   1   5
BRANCH   3  14
ATOM     14  CA  PHE A   2      19.366   1.178  10.779  0.00  0.00    +0.141 C 
BRANCH  14  15
ATOM     15  C   PHE A   2      18.536   1.151  12.064  0.00  0.00    +0.227 C 
ATOM     16  O   PHE A   2      17.332   1.492  12.049  0.00  0.00    -0.286 OA
ENDBRANCH  14  15
BRANCH  14  17
ATOM     17  CB  PHE A   2      19.072  -0.026   9.905  0.00  0.00    +0.054 C 
BRANCH  17  18
ATOM     18  CG  PHE A   2      19.343   0.228   8.446  0.00  0.00    -0.020 A 
ATOM     19  CD2 PHE A   2      20.349  -0.473   7.787  0.00  0.00    -0.004 A 
ATOM     20  CE2 PHE A   2      20.623  -0.230   6.433  0.00  0.00    -0.000 A 
ATOM     21  CZ  PHE A   2      19.899   0.715   5.740  0.00  0.00    -0.000 A 
ATOM     22  CE1 PHE A   2      18.885   1.439   6.391  0.00  0.00    -0.000 A 
ATOM     23  CD1 PHE A   2      18.621   1.199   7.743  0.00  0.00    -0.004 A 
ENDBRANCH  17  18
ENDBRANCH  14  17
ENDBRANCH   3  14
TORSDOF 8
REMARK  Name = ../refined-set-2016/3coz/3coz_pocket.pdb
REMARK  228 active torsions:
REMARK  status: ('A' for Active; 'I' for Inactive)
REMARK    1  A    between atoms: _1  and  _3
REMARK    2  A    between atoms: _3  and  _4
REMARK    3  A    between atoms: _3  and  _6
REMARK    4  A    between atoms: _6  and  _7
REMARK    5  A    between atoms: _10  and  _12
REMARK    6  A    between atoms: _12  and  _13
REMARK    7  A    between atoms: _12  and  _15
REMARK    8  A    between atoms: _19  and  _20
REMARK    9  A    between atoms: _25  and  _27
REMARK   10  A    between atoms: _27  and  _28
REMARK   11  A    between atoms: _27  and  _30
REMARK   12  A    between atoms: _30  and  _31
REMARK   13  A    between atoms: _34  and  _36
REMARK   14  A    between atoms: _36  and  _37
REMARK   15  A    between atoms: _36  and  _39
REMARK   16  A    between atoms: _39  and  _40
REMARK   17  A    between atoms: _40  and  _41
REMARK   18  A    between atoms: _43  and  _45
REMARK   19  A    between atoms: _45  and  _46
REMARK   20  A    between atoms: _48  and  _50
REMARK   21  A    between atoms: _50  and  _51
REMARK   22  A    between atoms: _54  and  _56
REMARK   23  A    between atoms: _56  and  _57
REMARK   24  A    between atoms: _56  and  _59
REMARK   25  A    between atoms: _59  and  _60
REMARK   26  A    between atoms: _63  and  _65
REMARK   27  A    between atoms: _65  and  _66
REMARK   28  A    between atoms: _65  and  _68
REMARK   29  A    between atoms: _68  and  _69
REMARK   30  A    between atoms: _74  and  _76
REMARK   31  A    between atoms: _76  and  _77
REMARK   32  A    between atoms: _76  and  _79
REMARK   33  A    between atoms: _79  and  _80
REMARK   34  A    between atoms: _80  and  _81
REMARK   35  A    between atoms: _84  and  _86
REMARK   36  A    between atoms: _86  and  _87
REMARK   37  A    between atoms: _89  and  _91
REMARK   38  A    between atoms: _91  and  _92
REMARK   39  A    between atoms: _91  and  _94
REMARK   40  A    between atoms: _94  and  _95
REMARK   41  A    between atoms: _100  and  _102
REMARK   42  A    between atoms: _102  and  _103
REMARK   43  A    between atoms: _102  and  _105
REMARK   44  A    between atoms: _105  and  _106
REMARK   45  A    between atoms: _109  and  _111
REMARK   46  A    between atoms: _111  and  _112
REMARK   47  A    between atoms: _115  and  _117
REMARK   48  A    between atoms: _117  and  _118
REMARK   49  A    between atoms: _117  and  _120
REMARK   50  A    between atoms: _120  and  _121
REMARK   51  A    between atoms: _124  and  _126
REMARK   52  A    between atoms: _126  and  _127
REMARK   53  A    between atoms: _126  and  _129
REMARK   54  A    between atoms: _132  and  _134
REMARK   55  A    between atoms: _134  and  _135
REMARK   56  A    between atoms: _134  and  _137
REMARK   57  A    between atoms: _140  and  _142
REMARK   58  A    between atoms: _142  and  _143
REMARK   59  A    between atoms: _142  and  _145
REMARK   60  A    between atoms: _145  and  _146
REMARK   61  A    between atoms: _148  and  _150
REMARK   62  A    between atoms: _150  and  _151
REMARK   63  A    between atoms: _150  and  _153
REMARK   64  A    between atoms: _153  and  _154
REMARK   65  A    between atoms: _157  and  _159
REMARK   66  A    between atoms: _159  and  _160
REMARK   67  A    between atoms: _159  and  _162
REMARK   68  A    between atoms: _162  and  _163
REMARK   69  A    between atoms: _169  and  _171
REMARK   70  A    between atoms: _171  and  _172
REMARK   71  A    between atoms: _171  and  _174
REMARK   72  A    between atoms: _177  and  _179
REMARK   73  A    between atoms: _179  and  _180
REMARK   74  A    between atoms: _179  and  _182
REMARK   75  A    between atoms: _182  and  _183
REMARK   76  A    between atoms: _188  and  _190
REMARK   77  A    between atoms: _190  and  _191
REMARK   78  A    between atoms: _190  and  _193
REMARK   79  A    between atoms: _193  and  _194
REMARK   80  A    between atoms: _194  and  _195
REMARK   81  A    between atoms: _200  and  _202
REMARK   82  A    between atoms: _202  and  _203
REMARK   83  A    between atoms: _202  and  _205
REMARK   84  A    between atoms: _205  and  _206
REMARK   85  A    between atoms: _212  and  _214
REMARK   86  A    between atoms: _214  and  _215
REMARK   87  A    between atoms: _214  and  _217
REMARK   88  A    between atoms: _217  and  _218
REMARK   89  A    between atoms: _223  and  _224
REMARK   90  A    between atoms: _227  and  _228
REMARK   91  A    between atoms: _233  and  _235
REMARK   92  A    between atoms: _235  and  _236
REMARK   93  A    between atoms: _235  and  _238
REMARK   94  A    between atoms: _238  and  _239
REMARK   95  A    between atoms: _244  and  _246
REMARK   96  A    between atoms: _246  and  _247
REMARK   97  A    between atoms: _246  and  _249
REMARK   98  A    between atoms: _249  and  _250
REMARK   99  A    between atoms: _256  and  _258
REMARK  100  A    between atoms: _258  and  _259
REMARK  101  A    between atoms: _261  and  _263
REMARK  102  A    between atoms: _263  and  _264
REMARK  103  A    between atoms: _263  and  _266
REMARK  104  A    between atoms: _269  and  _271
REMARK  105  A    between atoms: _271  and  _272
REMARK  106  A    between atoms: _271  and  _274
REMARK  107  A    between atoms: _274  and  _275
REMARK  108  A    between atoms: _278  and  _280
REMARK  109  A    between atoms: _280  and  _281
REMARK  110  A    between atoms: _280  and  _283
REMARK  111  A    between atoms: _286  and  _288
REMARK  112  A    between atoms: _288  and  _289
REMARK  113  A    between atoms: _288  and  _291
REMARK  114  A    between atoms: _294  and  _296
REMARK  115  A    between atoms: _296  and  _297
REMARK  116  A    between atoms: _296  and  _299
REMARK  117  A    between atoms: _299  and  _300
REMARK  118  A    between atoms: _303  and  _305
REMARK  119  A    between atoms: _305  and  _306
REMARK  120  A    between atoms: _305  and  _308
REMARK  121  A    between atoms: _311  and  _313
REMARK  122  A    between atoms: _313  and  _314
REMARK  123  A    between atoms: _313  and  _316
REMARK  124  A    between atoms: _316  and  _317
REMARK  125  A    between atoms: _323  and  _325
REMARK  126  A    between atoms: _325  and  _326
REMARK  127  A    between atoms: _325  and  _328
REMARK  128  A    between atoms: _328  and  _329
REMARK  129  A    between atoms: _335  and  _337
REMARK  130  A    between atoms: _337  and  _338
REMARK  131  A    between atoms: _340  and  _342
REMARK  132  A    between atoms: _342  and  _343
REMARK  133  A    between atoms: _342  and  _345
REMARK  134  A    between atoms: _345  and  _346
REMARK  135  A    between atoms: _346  and  _347
REMARK  136  A    between atoms: _350  and  _352
REMARK  137  A    between atoms: _352  and  _353
REMARK  138  A    between atoms: _352  and  _355
REMARK  139  A    between atoms: _355  and  _356
REMARK  140  A    between atoms: _356  and  _357
REMARK  141  A    between atoms: _357  and  _358
REMARK  142  A    between atoms: _358  and  _359
REMARK  143  A    between atoms: _363  and  _365
REMARK  144  A    between atoms: _365  and  _366
REMARK  145  A    between atoms: _365  and  _368
REMARK  146  A    between atoms: _368  and  _369
REMARK  147  A    between atoms: _372  and  _374
REMARK  148  A    between atoms: _374  and  _375
REMARK  149  A    between atoms: _374  and  _377
REMARK  150  A    between atoms: _377  and  _378
REMARK  151  A    between atoms: _383  and  _384
REMARK  152  A    between atoms: _386  and  _388
REMARK  153  A    between atoms: _388  and  _389
REMARK  154  A    between atoms: _388  and  _391
REMARK  155  A    between atoms: _391  and  _392
REMARK  156  A    between atoms: _392  and  _393
REMARK  157  A    between atoms: _398  and  _400
REMARK  158  A    between atoms: _400  and  _401
REMARK  159  A    between atoms: _400  and  _403
REMARK  160  A    between atoms: _403  and  _404
REMARK  161  A    between atoms: _407  and  _409
REMARK  162  A    between atoms: _409  and  _410
REMARK  163  A    between atoms: _409  and  _412
REMARK  164  A    between atoms: _412  and  _413
REMARK  165  A    between atoms: _416  and  _418
REMARK  166  A    between atoms: _418  and  _419
REMARK  167  A    between atoms: _418  and  _421
REMARK  168  A    between atoms: _424  and  _426
REMARK  169  A    between atoms: _426  and  _427
REMARK  170  A    between atoms: _429  and  _431
REMARK  171  A    between atoms: _431  and  _432
REMARK  172  A    between atoms: _431  and  _434
REMARK  173  A    between atoms: _438  and  _439
REMARK  174  A    between atoms: _444  and  _446
REMARK  175  A    between atoms: _446  and  _447
REMARK  176  A    between atoms: _446  and  _449
REMARK  177  A    between atoms: _449  and  _450
REMARK  178  A    between atoms: _453  and  _455
REMARK  179  A    between atoms: _455  and  _456
REMARK  180  A    between atoms: _455  and  _458
REMARK  181  A    between atoms: _461  and  _463
REMARK  182  A    between atoms: _463  and  _464
REMARK  183  A    between atoms: _463  and  _466
REMARK  184  A    between atoms: _466  and  _467
REMARK  185  A    between atoms: _467  and  _468
REMARK  186  A    between atoms: _468  and  _469
REMARK  187  A    between atoms: _478  and  _480
REMARK  188  A    between atoms: _480  and  _481
REMARK  189  A    between atoms: _480  and  _483
REMARK  190  A    between atoms: _483  and  _484
REMARK  191  A    between atoms: _484  and  _485
REMARK  192  A    between atoms: _488  and  _490
REMARK  193  A    between atoms: _490  and  _491
REMARK  194  A    between atoms: _490  and  _493
REMARK  195  A    between atoms: _493  and  _494
REMARK  196  A    between atoms: _497  and  _499
REMARK  197  A    between atoms: _499  and  _500
REMARK  198  A    between atoms: _503  and  _505
REMARK  199  A    between atoms: _505  and  _506
REMARK  200  A    between atoms: _505  and  _508
REMARK  201  A    between atoms: _508  and  _509
REMARK  202  A    between atoms: _509  and  _510
REMARK  203  A    between atoms: _512  and  _514
REMARK  204  A    between atoms: _514  and  _515
REMARK  205  A    between atoms: _514  and  _517
REMARK  206  A    between atoms: _517  and  _518
REMARK  207  A    between atoms: _520  and  _522
REMARK  208  A    between atoms: _522  and  _523
REMARK  209  A    between atoms: _522  and  _525
REMARK  210  A    between atoms: _525  and  _526
REMARK  211  A    between atoms: _528  and  _530
REMARK  212  A    between atoms: _530  and  _531
REMARK  213  A    between atoms: _530  and  _533
REMARK  214  A    between atoms: _533  and  _534
REMARK  215  A    between atoms: _534  and  _535
REMARK  216  A    between atoms: _535  and  _536
REMARK  217  A    between atoms: _545  and  _547
REMARK  218  A    between atoms: _547  and  _548
REMARK  219  A    between atoms: _547  and  _550
REMARK  220  A    between atoms: _550  and  _551
REMARK  221  A    between atoms: _556  and  _558
REMARK  222  A    between atoms: _558  and  _559
REMARK  223  A    between atoms: _558  and  _561
REMARK  224  A    between atoms: _561  and  _562
REMARK  225  A    between atoms: _565  and  _567
REMARK  226  A    between atoms: _567  and  _568
REMARK  227  A    between atoms: _567  and  _570
REMARK  228  A    between atoms: _570  and  _571
REMARK                            x       y       z     vdW  Elec       q    Type
REMARK                         _______ _______ _______ _____ _____    ______ ____
ROOT
ATOM      1  CA  VAL A   2      16.485   4.996  11.426  0.00  0.00    +0.148 C 
ENDROOT
BRANCH   1   4
ATOM      2  C   GLY A   1      17.563   5.175  13.614  0.00  0.00    +0.240 C 
ATOM      3  O   GLY A   1      16.668   5.927  14.073  0.00  0.00    -0.274 OA
ATOM      4  N   VAL A   2      17.549   4.693  12.378  0.00  0.00    -0.297 N 
ATOM      5  H   VAL A   2      18.328   4.074  12.075  0.00  0.00    +0.150 HD
BRANCH   2   6
ATOM      6  CA  GLY A   1      18.770   4.763  14.442  0.00  0.00    +0.169 C 
BRANCH   6   7
ATOM      7  N   GLY A   1      19.062   3.301  14.372  0.00  0.00    -0.236 NA
ATOM      8  H   GLY A   1      19.996   2.992  14.034  0.00  0.00    +0.142 HD
ENDBRANCH   6   7
ENDBRANCH   2   6
ENDBRANCH   1   4
BRANCH   1   9
ATOM      9  C   VAL A   2      15.146   4.450  11.907  0.00  0.00    +0.241 C 
ATOM     10  N   LEU A   3      15.096   3.161  12.238  0.00  0.00    -0.298 N 
ATOM     11  H   LEU A   3      15.960   2.583  12.228  0.00  0.00    +0.150 HD
ATOM     12  O   VAL A   2      14.161   5.194  11.987  0.00  0.00    -0.273 OA
BRANCH  10  13
ATOM     13  CA  LEU A   3      13.809   2.563  12.618  0.00  0.00    +0.137 C 
BRANCH  13  14
ATOM     14  C   LEU A   3      13.298   3.148  13.934  0.00  0.00    +0.227 C 
ATOM     15  O   LEU A   3      12.092   3.258  14.139  0.00  0.00    -0.286 OA
ENDBRANCH  13  14
BRANCH  13  16
ATOM     16  CB  LEU A   3      13.887   1.036  12.750  0.00  0.00    +0.028 C 
BRANCH  16  17
ATOM     17  CG  LEU A   3      14.350   0.160  11.580  0.00  0.00    +0.002 C 
ATOM     18  CD2 LEU A   3      13.737  -1.234  11.674  0.00  0.00    +0.000 C 
ATOM     19  CD1 LEU A   3      14.107   0.773  10.224  0.00  0.00    +0.000 C 
ENDBRANCH  16  17
ENDBRANCH  13  16
ENDBRANCH  10  13
ENDBRANCH   1   9
BRANCH   1  20
ATOM     20  CB  VAL A   2      16.809   4.400  10.041  0.00  0.00    +0.027 C 
ATOM     21  CG2 VAL A   2      18.105   5.038   9.466  0.00  0.00    +0.002 C 
ATOM     22  CG1 VAL A   2      15.648   4.564   9.109  0.00  0.00    +0.002 C 
ENDBRANCH   1  20
TORSDOF 9
REMARK  Name = ../refined-set-2016/3coz/3coz_pocket.pdb
REMARK  228 active torsions:
REMARK  status: ('A' for Active; 'I' for Inactive)
REMARK    1  A    between atoms: _1  and  _3
REMARK    2  A    between atoms: _3  and  _4
REMARK    3  A    between atoms: _3  and  _6
REMARK    4  A    between atoms: _6  and  _7
REMARK    5  A    between atoms: _10  and  _12
REMARK    6  A    between atoms: _12  and  _13
REMARK    7  A    between atoms: _12  and  _15
REMARK    8  A    between atoms: _19  and  _20
REMARK    9  A    between atoms: _25  and  _27
REMARK   10  A    between atoms: _27  and  _28
REMARK   11  A    between atoms: _27  and  _30
REMARK   12  A    between atoms: _30  and  _31
REMARK   13  A    between atoms: _34  and  _36
REMARK   14  A    between atoms: _36  and  _37
REMARK   15  A    between atoms: _36  and  _39
REMARK   16  A    between atoms: _39  and  _40
REMARK   17  A    between atoms: _40  and  _41
REMARK   18  A    between atoms: _43  and  _45
REMARK   19  A    between atoms: _45  and  _46
REMARK   20  A    between atoms: _48  and  _50
REMARK   21  A    between atoms: _50  and  _51
REMARK   22  A    between atoms: _54  and  _56
REMARK   23  A    between atoms: _56  and  _57
REMARK   24  A    between atoms: _56  and  _59
REMARK   25  A    between atoms: _59  and  _60
REMARK   26  A    between atoms: _63  and  _65
REMARK   27  A    between atoms: _65  and  _66
REMARK   28  A    between atoms: _65  and  _68
REMARK   29  A    between atoms: _68  and  _69
REMARK   30  A    between atoms: _74  and  _76
REMARK   31  A    between atoms: _76  and  _77
REMARK   32  A    between atoms: _76  and  _79
REMARK   33  A    between atoms: _79  and  _80
REMARK   34  A    between atoms: _80  and  _81
REMARK   35  A    between atoms: _84  and  _86
REMARK   36  A    between atoms: _86  and  _87
REMARK   37  A    between atoms: _89  and  _91
REMARK   38  A    between atoms: _91  and  _92
REMARK   39  A    between atoms: _91  and  _94
REMARK   40  A    between atoms: _94  and  _95
REMARK   41  A    between atoms: _100  and  _102
REMARK   42  A    between atoms: _102  and  _103
REMARK   43  A    between atoms: _102  and  _105
REMARK   44  A    between atoms: _105  and  _106
REMARK   45  A    between atoms: _109  and  _111
REMARK   46  A    between atoms: _111  and  _112
REMARK   47  A    between atoms: _115  and  _117
REMARK   48  A    between atoms: _117  and  _118
REMARK   49  A    between atoms: _117  and  _120
REMARK   50  A    between atoms: _120  and  _121
REMARK   51  A    between atoms: _124  and  _126
REMARK   52  A    between atoms: _126  and  _127
REMARK   53  A    between atoms: _126  and  _129
REMARK   54  A    between atoms: _132  and  _134
REMARK   55  A    between atoms: _134  and  _135
REMARK   56  A    between atoms: _134  and  _137
REMARK   57  A    between atoms: _140  and  _142
REMARK   58  A    between atoms: _142  and  _143
REMARK   59  A    between atoms: _142  and  _145
REMARK   60  A    between atoms: _145  and  _146
REMARK   61  A    between atoms: _148  and  _150
REMARK   62  A    between atoms: _150  and  _151
REMARK   63  A    between atoms: _150  and  _153
REMARK   64  A    between atoms: _153  and  _154
REMARK   65  A    between atoms: _157  and  _159
REMARK   66  A    between atoms: _159  and  _160
REMARK   67  A    between atoms: _159  and  _162
REMARK   68  A    between atoms: _162  and  _163
REMARK   69  A    between atoms: _169  and  _171
REMARK   70  A    between atoms: _171  and  _172
REMARK   71  A    between atoms: _171  and  _174
REMARK   72  A    between atoms: _177  and  _179
REMARK   73  A    between atoms: _179  and  _180
REMARK   74  A    between atoms: _179  and  _182
REMARK   75  A    between atoms: _182  and  _183
REMARK   76  A    between atoms: _188  and  _190
REMARK   77  A    between atoms: _190  and  _191
REMARK   78  A    between atoms: _190  and  _193
REMARK   79  A    between atoms: _193  and  _194
REMARK   80  A    between atoms: _194  and  _195
REMARK   81  A    between atoms: _200  and  _202
REMARK   82  A    between atoms: _202  and  _203
REMARK   83  A    between atoms: _202  and  _205
REMARK   84  A    between atoms: _205  and  _206
REMARK   85  A    between atoms: _212  and  _214
REMARK   86  A    between atoms: _214  and  _215
REMARK   87  A    between atoms: _214  and  _217
REMARK   88  A    between atoms: _217  and  _218
REMARK   89  A    between atoms: _223  and  _224
REMARK   90  A    between atoms: _227  and  _228
REMARK   91  A    between atoms: _233  and  _235
REMARK   92  A    between atoms: _235  and  _236
REMARK   93  A    between atoms: _235  and  _238
REMARK   94  A    between atoms: _238  and  _239
REMARK   95  A    between atoms: _244  and  _246
REMARK   96  A    between atoms: _246  and  _247
REMARK   97  A    between atoms: _246  and  _249
REMARK   98  A    between atoms: _249  and  _250
REMARK   99  A    between atoms: _256  and  _258
REMARK  100  A    between atoms: _258  and  _259
REMARK  101  A    between atoms: _261  and  _263
REMARK  102  A    between atoms: _263  and  _264
REMARK  103  A    between atoms: _263  and  _266
REMARK  104  A    between atoms: _269  and  _271
REMARK  105  A    between atoms: _271  and  _272
REMARK  106  A    between atoms: _271  and  _274
REMARK  107  A    between atoms: _274  and  _275
REMARK  108  A    between atoms: _278  and  _280
REMARK  109  A    between atoms: _280  and  _281
REMARK  110  A    between atoms: _280  and  _283
REMARK  111  A    between atoms: _286  and  _288
REMARK  112  A    between atoms: _288  and  _289
REMARK  113  A    between atoms: _288  and  _291
REMARK  114  A    between atoms: _294  and  _296
REMARK  115  A    between atoms: _296  and  _297
REMARK  116  A    between atoms: _296  and  _299
REMARK  117  A    between atoms: _299  and  _300
REMARK  118  A    between atoms: _303  and  _305
REMARK  119  A    between atoms: _305  and  _306
REMARK  120  A    between atoms: _305  and  _308
REMARK  121  A    between atoms: _311  and  _313
REMARK  122  A    between atoms: _313  and  _314
REMARK  123  A    between atoms: _313  and  _316
REMARK  124  A    between atoms: _316  and  _317
REMARK  125  A    between atoms: _323  and  _325
REMARK  126  A    between atoms: _325  and  _326
REMARK  127  A    between atoms: _325  and  _328
REMARK  128  A    between atoms: _328  and  _329
REMARK  129  A    between atoms: _335  and  _337
REMARK  130  A    between atoms: _337  and  _338
REMARK  131  A    between atoms: _340  and  _342
REMARK  132  A    between atoms: _342  and  _343
REMARK  133  A    between atoms: _342  and  _345
REMARK  134  A    between atoms: _345  and  _346
REMARK  135  A    between atoms: _346  and  _347
REMARK  136  A    between atoms: _350  and  _352
REMARK  137  A    between atoms: _352  and  _353
REMARK  138  A    between atoms: _352  and  _355
REMARK  139  A    between atoms: _355  and  _356
REMARK  140  A    between atoms: _356  and  _357
REMARK  141  A    between atoms: _357  and  _358
REMARK  142  A    between atoms: _358  and  _359
REMARK  143  A    between atoms: _363  and  _365
REMARK  144  A    between atoms: _365  and  _366
REMARK  145  A    between atoms: _365  and  _368
REMARK  146  A    between atoms: _368  and  _369
REMARK  147  A    between atoms: _372  and  _374
REMARK  148  A    between atoms: _374  and  _375
REMARK  149  A    between atoms: _374  and  _377
REMARK  150  A    between atoms: _377  and  _378
REMARK  151  A    between atoms: _383  and  _384
REMARK  152  A    between atoms: _386  and  _388
REMARK  153  A    between atoms: _388  and  _389
REMARK  154  A    between atoms: _388  and  _391
REMARK  155  A    between atoms: _391  and  _392
REMARK  156  A    between atoms: _392  and  _393
REMARK  157  A    between atoms: _398  and  _400
REMARK  158  A    between atoms: _400  and  _401
REMARK  159  A    between atoms: _400  and  _403
REMARK  160  A    between atoms: _403  and  _404
REMARK  161  A    between atoms: _407  and  _409
REMARK  162  A    between atoms: _409  and  _410
REMARK  163  A    between atoms: _409  and  _412
REMARK  164  A    between atoms: _412  and  _413
REMARK  165  A    between atoms: _416  and  _418
REMARK  166  A    between atoms: _418  and  _419
REMARK  167  A    between atoms: _418  and  _421
REMARK  168  A    between atoms: _424  and  _426
REMARK  169  A    between atoms: _426  and  _427
REMARK  170  A    between atoms: _429  and  _431
REMARK  171  A    between atoms: _431  and  _432
REMARK  172  A    between atoms: _431  and  _434
REMARK  173  A    between atoms: _438  and  _439
REMARK  174  A    between atoms: _444  and  _446
REMARK  175  A    between atoms: _446  and  _447
REMARK  176  A    between atoms: _446  and  _449
REMARK  177  A    between atoms: _449  and  _450
REMARK  178  A    between atoms: _453  and  _455
REMARK  179  A    between atoms: _455  and  _456
REMARK  180  A    between atoms: _455  and  _458
REMARK  181  A    between atoms: _461  and  _463
REMARK  182  A    between atoms: _463  and  _464
REMARK  183  A    between atoms: _463  and  _466
REMARK  184  A    between atoms: _466  and  _467
REMARK  185  A    between atoms: _467  and  _468
REMARK  186  A    between atoms: _468  and  _469
REMARK  187  A    between atoms: _478  and  _480
REMARK  188  A    between atoms: _480  and  _481
REMARK  189  A    between atoms: _480  and  _483
REMARK  190  A    between atoms: _483  and  _484
REMARK  191  A    between atoms: _484  and  _485
REMARK  192  A    between atoms: _488  and  _490
REMARK  193  A    between atoms: _490  and  _491
REMARK  194  A    between atoms: _490  and  _493
REMARK  195  A    between atoms: _493  and  _494
REMARK  196  A    between atoms: _497  and  _499
REMARK  197  A    between atoms: _499  and  _500
REMARK  198  A    between atoms: _503  and  _505
REMARK  199  A    between atoms: _505  and  _506
REMARK  200  A    between atoms: _505  and  _508
REMARK  201  A    between atoms: _508  and  _509
REMARK  202  A    between atoms: _509  and  _510
REMARK  203  A    between atoms: _512  and  _514
REMARK  204  A    between atoms: _514  and  _515
REMARK  205  A    between atoms: _514  and  _517
REMARK  206  A    between atoms: _517  and  _518
REMARK  207  A    between atoms: _520  and  _522
REMARK  208  A    between atoms: _522  and  _523
REMARK  209  A    between atoms: _522  and  _525
REMARK  210  A    between atoms: _525  and  _526
REMARK  211  A    between atoms: _528  and  _530
REMARK  212  A    between atoms: _530  and  _531
REMARK  213  A    between atoms: _530  and  _533
REMARK  214  A    between atoms: _533  and  _534
REMARK  215  A    between atoms: _534  and  _535
REMARK  216  A    between atoms: _535  and  _536
REMARK  217  A    between atoms: _545  and  _547
REMARK  218  A    between atoms: _547  and  _548
REMARK  219  A    between atoms: _547  and  _550
REMARK  220  A    between atoms: _550  and  _551
REMARK  221  A    between atoms: _556  and  _558
REMARK  222  A    between atoms: _558  and  _559
REMARK  223  A    between atoms: _558  and  _561
REMARK  224  A    between atoms: _561  and  _562
REMARK  225  A    between atoms: _565  and  _567
REMARK  226  A    between atoms: _567  and  _568
REMARK  227  A    between atoms: _567  and  _570
REMARK  228  A    between atoms: _570  and  _571
REMARK                            x       y       z     vdW  Elec       q    Type
REMARK                         _______ _______ _______ _____ _____    ______ ____
ROOT
ATOM      1  C   VAL A   1      11.903   7.488  13.933  0.00  0.00    +0.238 C 
ATOM      2  O   VAL A   1      10.944   8.194  14.198  0.00  0.00    -0.274 OA
ATOM      3  N   VAL A   2      11.860   6.588  12.952  0.00  0.00    -0.298 N 
ATOM      4  H   VAL A   2      12.693   6.001  12.744  0.00  0.00    +0.150 HD
ENDROOT
BRANCH   1   5
ATOM      5  CA  VAL A   1      13.216   7.621  14.735  0.00  0.00    +0.145 C 
BRANCH   5   6
ATOM      6  CB  VAL A   1      14.189   8.630  14.103  0.00  0.00    +0.025 C 
ATOM      7  CG2 VAL A   1      13.683  10.044  14.333  0.00  0.00    +0.002 C 
ATOM      8  CG1 VAL A   1      14.398   8.360  12.593  0.00  0.00    +0.002 C 
ENDBRANCH   5   6
BRANCH   5   9
ATOM      9  N   VAL A   1      13.819   6.321  14.994  0.00  0.00    -0.238 NA
ATOM     10  H   VAL A   1      14.726   6.052  14.562  0.00  0.00    +0.142 HD
ENDBRANCH   5   9
ENDBRANCH   1   5
BRANCH   3  11
ATOM     11  CA  VAL A   2      10.646   6.432  12.176  0.00  0.00    +0.137 C 
BRANCH  11  12
ATOM     12  CB  VAL A   2      10.859   5.553  10.924  0.00  0.00    +0.026 C 
ATOM     13  CG2 VAL A   2       9.501   5.214  10.269  0.00  0.00    +0.002 C 
ATOM     14  CG1 VAL A   2      11.740   6.270   9.919  0.00  0.00    +0.002 C 
ENDBRANCH  11  12
BRANCH  11  15
ATOM     15  C   VAL A   2       9.491   5.891  13.047  0.00  0.00    +0.227 C 
ATOM     16  O   VAL A   2       8.354   6.354  12.923  0.00  0.00    -0.286 OA
ENDBRANCH  11  15
ENDBRANCH   3  11
TORSDOF 6
REMARK  Name = ../refined-set-2016/3coz/3coz_pocket.pdb
REMARK  228 active torsions:
REMARK  status: ('A' for Active; 'I' for Inactive)
REMARK    1  A    between atoms: _1  and  _3
REMARK    2  A    between atoms: _3  and  _4
REMARK    3  A    between atoms: _3  and  _6
REMARK    4  A    between atoms: _6  and  _7
REMARK    5  A    between atoms: _10  and  _12
REMARK    6  A    between atoms: _12  and  _13
REMARK    7  A    between atoms: _12  and  _15
REMARK    8  A    between atoms: _19  and  _20
REMARK    9  A    between atoms: _25  and  _27
REMARK   10  A    between atoms: _27  and  _28
REMARK   11  A    between atoms: _27  and  _30
REMARK   12  A    between atoms: _30  and  _31
REMARK   13  A    between atoms: _34  and  _36
REMARK   14  A    between atoms: _36  and  _37
REMARK   15  A    between atoms: _36  and  _39
REMARK   16  A    between atoms: _39  and  _40
REMARK   17  A    between atoms: _40  and  _41
REMARK   18  A    between atoms: _43  and  _45
REMARK   19  A    between atoms: _45  and  _46
REMARK   20  A    between atoms: _48  and  _50
REMARK   21  A    between atoms: _50  and  _51
REMARK   22  A    between atoms: _54  and  _56
REMARK   23  A    between atoms: _56  and  _57
REMARK   24  A    between atoms: _56  and  _59
REMARK   25  A    between atoms: _59  and  _60
REMARK   26  A    between atoms: _63  and  _65
REMARK   27  A    between atoms: _65  and  _66
REMARK   28  A    between atoms: _65  and  _68
REMARK   29  A    between atoms: _68  and  _69
REMARK   30  A    between atoms: _74  and  _76
REMARK   31  A    between atoms: _76  and  _77
REMARK   32  A    between atoms: _76  and  _79
REMARK   33  A    between atoms: _79  and  _80
REMARK   34  A    between atoms: _80  and  _81
REMARK   35  A    between atoms: _84  and  _86
REMARK   36  A    between atoms: _86  and  _87
REMARK   37  A    between atoms: _89  and  _91
REMARK   38  A    between atoms: _91  and  _92
REMARK   39  A    between atoms: _91  and  _94
REMARK   40  A    between atoms: _94  and  _95
REMARK   41  A    between atoms: _100  and  _102
REMARK   42  A    between atoms: _102  and  _103
REMARK   43  A    between atoms: _102  and  _105
REMARK   44  A    between atoms: _105  and  _106
REMARK   45  A    between atoms: _109  and  _111
REMARK   46  A    between atoms: _111  and  _112
REMARK   47  A    between atoms: _115  and  _117
REMARK   48  A    between atoms: _117  and  _118
REMARK   49  A    between atoms: _117  and  _120
REMARK   50  A    between atoms: _120  and  _121
REMARK   51  A    between atoms: _124  and  _126
REMARK   52  A    between atoms: _126  and  _127
REMARK   53  A    between atoms: _126  and  _129
REMARK   54  A    between atoms: _132  and  _134
REMARK   55  A    between atoms: _134  and  _135
REMARK   56  A    between atoms: _134  and  _137
REMARK   57  A    between atoms: _140  and  _142
REMARK   58  A    between atoms: _142  and  _143
REMARK   59  A    between atoms: _142  and  _145
REMARK   60  A    between atoms: _145  and  _146
REMARK   61  A    between atoms: _148  and  _150
REMARK   62  A    between atoms: _150  and  _151
REMARK   63  A    between atoms: _150  and  _153
REMARK   64  A    between atoms: _153  and  _154
REMARK   65  A    between atoms: _157  and  _159
REMARK   66  A    between atoms: _159  and  _160
REMARK   67  A    between atoms: _159  and  _162
REMARK   68  A    between atoms: _162  and  _163
REMARK   69  A    between atoms: _169  and  _171
REMARK   70  A    between atoms: _171  and  _172
REMARK   71  A    between atoms: _171  and  _174
REMARK   72  A    between atoms: _177  and  _179
REMARK   73  A    between atoms: _179  and  _180
REMARK   74  A    between atoms: _179  and  _182
REMARK   75  A    between atoms: _182  and  _183
REMARK   76  A    between atoms: _188  and  _190
REMARK   77  A    between atoms: _190  and  _191
REMARK   78  A    between atoms: _190  and  _193
REMARK   79  A    between atoms: _193  and  _194
REMARK   80  A    between atoms: _194  and  _195
REMARK   81  A    between atoms: _200  and  _202
REMARK   82  A    between atoms: _202  and  _203
REMARK   83  A    between atoms: _202  and  _205
REMARK   84  A    between atoms: _205  and  _206
REMARK   85  A    between atoms: _212  and  _214
REMARK   86  A    between atoms: _214  and  _215
REMARK   87  A    between atoms: _214  and  _217
REMARK   88  A    between atoms: _217  and  _218
REMARK   89  A    between atoms: _223  and  _224
REMARK   90  A    between atoms: _227  and  _228
REMARK   91  A    between atoms: _233  and  _235
REMARK   92  A    between atoms: _235  and  _236
REMARK   93  A    between atoms: _235  and  _238
REMARK   94  A    between atoms: _238  and  _239
REMARK   95  A    between atoms: _244  and  _246
REMARK   96  A    between atoms: _246  and  _247
REMARK   97  A    between atoms: _246  and  _249
REMARK   98  A    between atoms: _249  and  _250
REMARK   99  A    between atoms: _256  and  _258
REMARK  100  A    between atoms: _258  and  _259
REMARK  101  A    between atoms: _261  and  _263
REMARK  102  A    between atoms: _263  and  _264
REMARK  103  A    between atoms: _263  and  _266
REMARK  104  A    between atoms: _269  and  _271
REMARK  105  A    between atoms: _271  and  _272
REMARK  106  A    between atoms: _271  and  _274
REMARK  107  A    between atoms: _274  and  _275
REMARK  108  A    between atoms: _278  and  _280
REMARK  109  A    between atoms: _280  and  _281
REMARK  110  A    between atoms: _280  and  _283
REMARK  111  A    between atoms: _286  and  _288
REMARK  112  A    between atoms: _288  and  _289
REMARK  113  A    between atoms: _288  and  _291
REMARK  114  A    between atoms: _294  and  _296
REMARK  115  A    between atoms: _296  and  _297
REMARK  116  A    between atoms: _296  and  _299
REMARK  117  A    between atoms: _299  and  _300
REMARK  118  A    between atoms: _303  and  _305
REMARK  119  A    between atoms: _305  and  _306
REMARK  120  A    between atoms: _305  and  _308
REMARK  121  A    between atoms: _311  and  _313
REMARK  122  A    between atoms: _313  and  _314
REMARK  123  A    between atoms: _313  and  _316
REMARK  124  A    between atoms: _316  and  _317
REMARK  125  A    between atoms: _323  and  _325
REMARK  126  A    between atoms: _325  and  _326
REMARK  127  A    between atoms: _325  and  _328
REMARK  128  A    between atoms: _328  and  _329
REMARK  129  A    between atoms: _335  and  _337
REMARK  130  A    between atoms: _337  and  _338
REMARK  131  A    between atoms: _340  and  _342
REMARK  132  A    between atoms: _342  and  _343
REMARK  133  A    between atoms: _342  and  _345
REMARK  134  A    between atoms: _345  and  _346
REMARK  135  A    between atoms: _346  and  _347
REMARK  136  A    between atoms: _350  and  _352
REMARK  137  A    between atoms: _352  and  _353
REMARK  138  A    between atoms: _352  and  _355
REMARK  139  A    between atoms: _355  and  _356
REMARK  140  A    between atoms: _356  and  _357
REMARK  141  A    between atoms: _357  and  _358
REMARK  142  A    between atoms: _358  and  _359
REMARK  143  A    between atoms: _363  and  _365
REMARK  144  A    between atoms: _365  and  _366
REMARK  145  A    between atoms: _365  and  _368
REMARK  146  A    between atoms: _368  and  _369
REMARK  147  A    between atoms: _372  and  _374
REMARK  148  A    between atoms: _374  and  _375
REMARK  149  A    between atoms: _374  and  _377
REMARK  150  A    between atoms: _377  and  _378
REMARK  151  A    between atoms: _383  and  _384
REMARK  152  A    between atoms: _386  and  _388
REMARK  153  A    between atoms: _388  and  _389
REMARK  154  A    between atoms: _388  and  _391
REMARK  155  A    between atoms: _391  and  _392
REMARK  156  A    between atoms: _392  and  _393
REMARK  157  A    between atoms: _398  and  _400
REMARK  158  A    between atoms: _400  and  _401
REMARK  159  A    between atoms: _400  and  _403
REMARK  160  A    between atoms: _403  and  _404
REMARK  161  A    between atoms: _407  and  _409
REMARK  162  A    between atoms: _409  and  _410
REMARK  163  A    between atoms: _409  and  _412
REMARK  164  A    between atoms: _412  and  _413
REMARK  165  A    between atoms: _416  and  _418
REMARK  166  A    between atoms: _418  and  _419
REMARK  167  A    between atoms: _418  and  _421
REMARK  168  A    between atoms: _424  and  _426
REMARK  169  A    between atoms: _426  and  _427
REMARK  170  A    between atoms: _429  and  _431
REMARK  171  A    between atoms: _431  and  _432
REMARK  172  A    between atoms: _431  and  _434
REMARK  173  A    between atoms: _438  and  _439
REMARK  174  A    between atoms: _444  and  _446
REMARK  175  A    between atoms: _446  and  _447
REMARK  176  A    between atoms: _446  and  _449
REMARK  177  A    between atoms: _449  and  _450
REMARK  178  A    between atoms: _453  and  _455
REMARK  179  A    between atoms: _455  and  _456
REMARK  180  A    between atoms: _455  and  _458
REMARK  181  A    between atoms: _461  and  _463
REMARK  182  A    between atoms: _463  and  _464
REMARK  183  A    between atoms: _463  and  _466
REMARK  184  A    between atoms: _466  and  _467
REMARK  185  A    between atoms: _467  and  _468
REMARK  186  A    between atoms: _468  and  _469
REMARK  187  A    between atoms: _478  and  _480
REMARK  188  A    between atoms: _480  and  _481
REMARK  189  A    between atoms: _480  and  _483
REMARK  190  A    between atoms: _483  and  _484
REMARK  191  A    between atoms: _484  and  _485
REMARK  192  A    between atoms: _488  and  _490
REMARK  193  A    between atoms: _490  and  _491
REMARK  194  A    between atoms: _490  and  _493
REMARK  195  A    between atoms: _493  and  _494
REMARK  196  A    between atoms: _497  and  _499
REMARK  197  A    between atoms: _499  and  _500
REMARK  198  A    between atoms: _503  and  _505
REMARK  199  A    between atoms: _505  and  _506
REMARK  200  A    between atoms: _505  and  _508
REMARK  201  A    between atoms: _508  and  _509
REMARK  202  A    between atoms: _509  and  _510
REMARK  203  A    between atoms: _512  and  _514
REMARK  204  A    between atoms: _514  and  _515
REMARK  205  A    between atoms: _514  and  _517
REMARK  206  A    between atoms: _517  and  _518
REMARK  207  A    between atoms: _520  and  _522
REMARK  208  A    between atoms: _522  and  _523
REMARK  209  A    between atoms: _522  and  _525
REMARK  210  A    between atoms: _525  and  _526
REMARK  211  A    between atoms: _528  and  _530
REMARK  212  A    between atoms: _530  and  _531
REMARK  213  A    between atoms: _530  and  _533
REMARK  214  A    between atoms: _533  and  _534
REMARK  215  A    between atoms: _534  and  _535
REMARK  216  A    between atoms: _535  and  _536
REMARK  217  A    between atoms: _545  and  _547
REMARK  218  A    between atoms: _547  and  _548
REMARK  219  A    between atoms: _547  and  _550
REMARK  220  A    between atoms: _550  and  _551
REMARK  221  A    between atoms: _556  and  _558
REMARK  222  A    between atoms: _558  and  _559
REMARK  223  A    between atoms: _558  and  _561
REMARK  224  A    between atoms: _561  and  _562
REMARK  225  A    between atoms: _565  and  _567
REMARK  226  A    between atoms: _567  and  _568
REMARK  227  A    between atoms: _567  and  _570
REMARK  228  A    between atoms: _570  and  _571
REMARK                            x       y       z     vdW  Elec       q    Type
REMARK                         _______ _______ _______ _____ _____    ______ ____
ROOT
ATOM      1  CA  LEU A   1       7.386   9.781  14.093  0.00  0.00    +0.133 C 
ENDROOT
BRANCH   1   2
ATOM      2  N   LEU A   1       8.179   8.909  14.970  0.00  0.00    -0.239 NA
ATOM      3  H   LEU A   1       9.099   8.550  14.643  0.00  0.00    +0.142 HD
ENDBRANCH   1   2
BRANCH   1   4
ATOM      4  C   LEU A   1       6.016   9.189  13.796  0.00  0.00    +0.224 C 
ATOM      5  O   LEU A   1       5.032   9.926  13.772  0.00  0.00    -0.287 OA
ENDBRANCH   1   4
BRANCH   1   6
ATOM      6  CB  LEU A   1       8.125  10.057  12.787  0.00  0.00    +0.025 C 
BRANCH   6   7
ATOM      7  CG  LEU A   1       9.418  10.887  12.999  0.00  0.00    +0.002 C 
ATOM      8  CD2 LEU A   1       9.115  12.379  13.294  0.00  0.00    +0.000 C 
ATOM      9  CD1 LEU A   1      10.228  10.792  11.738  0.00  0.00    +0.000 C 
ENDBRANCH   6   7
ENDBRANCH   1   6
TORSDOF 4
REMARK  Name = ../refined-set-2016/3coz/3coz_pocket.pdb
REMARK  228 active torsions:
REMARK  status: ('A' for Active; 'I' for Inactive)
REMARK    1  A    between atoms: _1  and  _3
REMARK    2  A    between atoms: _3  and  _4
REMARK    3  A    between atoms: _3  and  _6
REMARK    4  A    between atoms: _6  and  _7
REMARK    5  A    between atoms: _10  and  _12
REMARK    6  A    between atoms: _12  and  _13
REMARK    7  A    between atoms: _12  and  _15
REMARK    8  A    between atoms: _19  and  _20
REMARK    9  A    between atoms: _25  and  _27
REMARK   10  A    between atoms: _27  and  _28
REMARK   11  A    between atoms: _27  and  _30
REMARK   12  A    between atoms: _30  and  _31
REMARK   13  A    between atoms: _34  and  _36
REMARK   14  A    between atoms: _36  and  _37
REMARK   15  A    between atoms: _36  and  _39
REMARK   16  A    between atoms: _39  and  _40
REMARK   17  A    between atoms: _40  and  _41
REMARK   18  A    between atoms: _43  and  _45
REMARK   19  A    between atoms: _45  and  _46
REMARK   20  A    between atoms: _48  and  _50
REMARK   21  A    between atoms: _50  and  _51
REMARK   22  A    between atoms: _54  and  _56
REMARK   23  A    between atoms: _56  and  _57
REMARK   24  A    between atoms: _56  and  _59
REMARK   25  A    between atoms: _59  and  _60
REMARK   26  A    between atoms: _63  and  _65
REMARK   27  A    between atoms: _65  and  _66
REMARK   28  A    between atoms: _65  and  _68
REMARK   29  A    between atoms: _68  and  _69
REMARK   30  A    between atoms: _74  and  _76
REMARK   31  A    between atoms: _76  and  _77
REMARK   32  A    between atoms: _76  and  _79
REMARK   33  A    between atoms: _79  and  _80
REMARK   34  A    between atoms: _80  and  _81
REMARK   35  A    between atoms: _84  and  _86
REMARK   36  A    between atoms: _86  and  _87
REMARK   37  A    between atoms: _89  and  _91
REMARK   38  A    between atoms: _91  and  _92
REMARK   39  A    between atoms: _91  and  _94
REMARK   40  A    between atoms: _94  and  _95
REMARK   41  A    between atoms: _100  and  _102
REMARK   42  A    between atoms: _102  and  _103
REMARK   43  A    between atoms: _102  and  _105
REMARK   44  A    between atoms: _105  and  _106
REMARK   45  A    between atoms: _109  and  _111
REMARK   46  A    between atoms: _111  and  _112
REMARK   47  A    between atoms: _115  and  _117
REMARK   48  A    between atoms: _117  and  _118
REMARK   49  A    between atoms: _117  and  _120
REMARK   50  A    between atoms: _120  and  _121
REMARK   51  A    between atoms: _124  and  _126
REMARK   52  A    between atoms: _126  and  _127
REMARK   53  A    between atoms: _126  and  _129
REMARK   54  A    between atoms: _132  and  _134
REMARK   55  A    between atoms: _134  and  _135
REMARK   56  A    between atoms: _134  and  _137
REMARK   57  A    between atoms: _140  and  _142
REMARK   58  A    between atoms: _142  and  _143
REMARK   59  A    between atoms: _142  and  _145
REMARK   60  A    between atoms: _145  and  _146
REMARK   61  A    between atoms: _148  and  _150
REMARK   62  A    between atoms: _150  and  _151
REMARK   63  A    between atoms: _150  and  _153
REMARK   64  A    between atoms: _153  and  _154
REMARK   65  A    between atoms: _157  and  _159
REMARK   66  A    between atoms: _159  and  _160
REMARK   67  A    between atoms: _159  and  _162
REMARK   68  A    between atoms: _162  and  _163
REMARK   69  A    between atoms: _169  and  _171
REMARK   70  A    between atoms: _171  and  _172
REMARK   71  A    between atoms: _171  and  _174
REMARK   72  A    between atoms: _177  and  _179
REMARK   73  A    between atoms: _179  and  _180
REMARK   74  A    between atoms: _179  and  _182
REMARK   75  A    between atoms: _182  and  _183
REMARK   76  A    between atoms: _188  and  _190
REMARK   77  A    between atoms: _190  and  _191
REMARK   78  A    between atoms: _190  and  _193
REMARK   79  A    between atoms: _193  and  _194
REMARK   80  A    between atoms: _194  and  _195
REMARK   81  A    between atoms: _200  and  _202
REMARK   82  A    between atoms: _202  and  _203
REMARK   83  A    between atoms: _202  and  _205
REMARK   84  A    between atoms: _205  and  _206
REMARK   85  A    between atoms: _212  and  _214
REMARK   86  A    between atoms: _214  and  _215
REMARK   87  A    between atoms: _214  and  _217
REMARK   88  A    between atoms: _217  and  _218
REMARK   89  A    between atoms: _223  and  _224
REMARK   90  A    between atoms: _227  and  _228
REMARK   91  A    between atoms: _233  and  _235
REMARK   92  A    between atoms: _235  and  _236
REMARK   93  A    between atoms: _235  and  _238
REMARK   94  A    between atoms: _238  and  _239
REMARK   95  A    between atoms: _244  and  _246
REMARK   96  A    between atoms: _246  and  _247
REMARK   97  A    between atoms: _246  and  _249
REMARK   98  A    between atoms: _249  and  _250
REMARK   99  A    between atoms: _256  and  _258
REMARK  100  A    between atoms: _258  and  _259
REMARK  101  A    between atoms: _261  and  _263
REMARK  102  A    between atoms: _263  and  _264
REMARK  103  A    between atoms: _263  and  _266
REMARK  104  A    between atoms: _269  and  _271
REMARK  105  A    between atoms: _271  and  _272
REMARK  106  A    between atoms: _271  and  _274
REMARK  107  A    between atoms: _274  and  _275
REMARK  108  A    between atoms: _278  and  _280
REMARK  109  A    between atoms: _280  and  _281
REMARK  110  A    between atoms: _280  and  _283
REMARK  111  A    between atoms: _286  and  _288
REMARK  112  A    between atoms: _288  and  _289
REMARK  113  A    between atoms: _288  and  _291
REMARK  114  A    between atoms: _294  and  _296
REMARK  115  A    between atoms: _296  and  _297
REMARK  116  A    between atoms: _296  and  _299
REMARK  117  A    between atoms: _299  and  _300
REMARK  118  A    between atoms: _303  and  _305
REMARK  119  A    between atoms: _305  and  _306
REMARK  120  A    between atoms: _305  and  _308
REMARK  121  A    between atoms: _311  and  _313
REMARK  122  A    between atoms: _313  and  _314
REMARK  123  A    between atoms: _313  and  _316
REMARK  124  A    between atoms: _316  and  _317
REMARK  125  A    between atoms: _323  and  _325
REMARK  126  A    between atoms: _325  and  _326
REMARK  127  A    between atoms: _325  and  _328
REMARK  128  A    between atoms: _328  and  _329
REMARK  129  A    between atoms: _335  and  _337
REMARK  130  A    between atoms: _337  and  _338
REMARK  131  A    between atoms: _340  and  _342
REMARK  132  A    between atoms: _342  and  _343
REMARK  133  A    between atoms: _342  and  _345
REMARK  134  A    between atoms: _345  and  _346
REMARK  135  A    between atoms: _346  and  _347
REMARK  136  A    between atoms: _350  and  _352
REMARK  137  A    between atoms: _352  and  _353
REMARK  138  A    between atoms: _352  and  _355
REMARK  139  A    between atoms: _355  and  _356
REMARK  140  A    between atoms: _356  and  _357
REMARK  141  A    between atoms: _357  and  _358
REMARK  142  A    between atoms: _358  and  _359
REMARK  143  A    between atoms: _363  and  _365
REMARK  144  A    between atoms: _365  and  _366
REMARK  145  A    between atoms: _365  and  _368
REMARK  146  A    between atoms: _368  and  _369
REMARK  147  A    between atoms: _372  and  _374
REMARK  148  A    between atoms: _374  and  _375
REMARK  149  A    between atoms: _374  and  _377
REMARK  150  A    between atoms: _377  and  _378
REMARK  151  A    between atoms: _383  and  _384
REMARK  152  A    between atoms: _386  and  _388
REMARK  153  A    between atoms: _388  and  _389
REMARK  154  A    between atoms: _388  and  _391
REMARK  155  A    between atoms: _391  and  _392
REMARK  156  A    between atoms: _392  and  _393
REMARK  157  A    between atoms: _398  and  _400
REMARK  158  A    between atoms: _400  and  _401
REMARK  159  A    between atoms: _400  and  _403
REMARK  160  A    between atoms: _403  and  _404
REMARK  161  A    between atoms: _407  and  _409
REMARK  162  A    between atoms: _409  and  _410
REMARK  163  A    between atoms: _409  and  _412
REMARK  164  A    between atoms: _412  and  _413
REMARK  165  A    between atoms: _416  and  _418
REMARK  166  A    between atoms: _418  and  _419
REMARK  167  A    between atoms: _418  and  _421
REMARK  168  A    between atoms: _424  and  _426
REMARK  169  A    between atoms: _426  and  _427
REMARK  170  A    between atoms: _429  and  _431
REMARK  171  A    between atoms: _431  and  _432
REMARK  172  A    between atoms: _431  and  _434
REMARK  173  A    between atoms: _438  and  _439
REMARK  174  A    between atoms: _444  and  _446
REMARK  175  A    between atoms: _446  and  _447
REMARK  176  A    between atoms: _446  and  _449
REMARK  177  A    between atoms: _449  and  _450
REMARK  178  A    between atoms: _453  and  _455
REMARK  179  A    between atoms: _455  and  _456
REMARK  180  A    between atoms: _455  and  _458
REMARK  181  A    between atoms: _461  and  _463
REMARK  182  A    between atoms: _463  and  _464
REMARK  183  A    between atoms: _463  and  _466
REMARK  184  A    between atoms: _466  and  _467
REMARK  185  A    between atoms: _467  and  _468
REMARK  186  A    between atoms: _468  and  _469
REMARK  187  A    between atoms: _478  and  _480
REMARK  188  A    between atoms: _480  and  _481
REMARK  189  A    between atoms: _480  and  _483
REMARK  190  A    between atoms: _483  and  _484
REMARK  191  A    between atoms: _484  and  _485
REMARK  192  A    between atoms: _488  and  _490
REMARK  193  A    between atoms: _490  and  _491
REMARK  194  A    between atoms: _490  and  _493
REMARK  195  A    between atoms: _493  and  _494
REMARK  196  A    between atoms: _497  and  _499
REMARK  197  A    between atoms: _499  and  _500
REMARK  198  A    between atoms: _503  and  _505
REMARK  199  A    between atoms: _505  and  _506
REMARK  200  A    between atoms: _505  and  _508
REMARK  201  A    between atoms: _508  and  _509
REMARK  202  A    between atoms: _509  and  _510
REMARK  203  A    between atoms: _512  and  _514
REMARK  204  A    between atoms: _514  and  _515
REMARK  205  A    between atoms: _514  and  _517
REMARK  206  A    between atoms: _517  and  _518
REMARK  207  A    between atoms: _520  and  _522
REMARK  208  A    between atoms: _522  and  _523
REMARK  209  A    between atoms: _522  and  _525
REMARK  210  A    between atoms: _525  and  _526
REMARK  211  A    between atoms: _528  and  _530
REMARK  212  A    between atoms: _530  and  _531
REMARK  213  A    between atoms: _530  and  _533
REMARK  214  A    between atoms: _533  and  _534
REMARK  215  A    between atoms: _534  and  _535
REMARK  216  A    between atoms: _535  and  _536
REMARK  217  A    between atoms: _545  and  _547
REMARK  218  A    between atoms: _547  and  _548
REMARK  219  A    between atoms: _547  and  _550
REMARK  220  A    between atoms: _550  and  _551
REMARK  221  A    between atoms: _556  and  _558
REMARK  222  A    between atoms: _558  and  _559
REMARK  223  A    between atoms: _558  and  _561
REMARK  224  A    between atoms: _561  and  _562
REMARK  225  A    between atoms: _565  and  _567
REMARK  226  A    between atoms: _567  and  _568
REMARK  227  A    between atoms: _567  and  _570
REMARK  228  A    between atoms: _570  and  _571
REMARK                            x       y       z     vdW  Elec       q    Type
REMARK                         _______ _______ _______ _____ _____    ______ ____
ROOT
ATOM      1  CA  GLU A   5      13.037   3.405  -3.591  0.00  0.00    +0.149 C 
ENDROOT
BRANCH   1   2
ATOM      2  C   GLU A   5      14.551   3.617  -3.659  0.00  0.00    +0.241 C 
ATOM      3  O   GLU A   5      15.321   2.655  -3.659  0.00  0.00    -0.273 OA
ATOM      4  N   LYS A   6      14.968   4.880  -3.717  0.00  0.00    -0.297 N 
ATOM      5  H   LYS A   6      14.268   5.649  -3.721  0.00  0.00    +0.150 HD
BRANCH   4   6
ATOM      6  CA  LYS A   6      16.398   5.208  -3.775  0.00  0.00    +0.149 C 
BRANCH   6   7
ATOM      7  C   LYS A   6      17.104   4.593  -2.570  0.00  0.00    +0.241 C 
ATOM      8  N   ASP A   7      16.508   4.757  -1.395  0.00  0.00    -0.297 N 
ATOM      9  H   ASP A   7      15.689   5.394  -1.317  0.00  0.00    +0.150 HD
ATOM     10  O   LYS A   6      18.116   3.924  -2.705  0.00  0.00    -0.273 OA
BRANCH   8  11
ATOM     11  CA  ASP A   7      16.984   4.062  -0.227  0.00  0.00    +0.160 C 
BRANCH  11  12
ATOM     12  C   ASP A   7      16.186   2.770  -0.035  0.00  0.00    +0.241 C 
ATOM     13  O   ASP A   7      15.385   2.657   0.873  0.00  0.00    -0.273 OA
ATOM     14  N   TYR A   8      16.440   1.802  -0.914  0.00  0.00    -0.298 N 
ATOM     15  H   TYR A   8      17.238   1.931  -1.569  0.00  0.00    +0.150 HD
BRANCH  14  16
ATOM     16  CA  TYR A   8      15.665   0.576  -1.010  0.00  0.00    +0.141 C 
BRANCH  16  17
ATOM     17  C   TYR A   8      15.767  -0.303   0.222  0.00  0.00    +0.227 C 
ATOM     18  O   TYR A   8      14.764  -0.840   0.667  0.00  0.00    -0.286 OA
ENDBRANCH  16  17
BRANCH  16  19
ATOM     19  CB  TYR A   8      16.050  -0.235  -2.264  0.00  0.00    +0.054 C 
BRANCH  19  20
ATOM     20  CG  TYR A   8      15.058  -1.346  -2.622  0.00  0.00    -0.020 A 
ATOM     21  CD2 TYR A   8      15.319  -2.667  -2.279  0.00  0.00    -0.001 A 
ATOM     22  CE2 TYR A   8      14.437  -3.685  -2.589  0.00  0.00    +0.036 A 
ATOM     23  CZ  TYR A   8      13.249  -3.395  -3.251  0.00  0.00    +0.134 A 
ATOM     24  CE1 TYR A   8      12.934  -2.097  -3.590  0.00  0.00    +0.036 A 
ATOM     25  CD1 TYR A   8      13.868  -1.062  -3.276  0.00  0.00    -0.001 A 
BRANCH  23  26
ATOM     26  OH  TYR A   8      12.406  -4.425  -3.544  0.00  0.00    -0.506 OA
ATOM     27  HH  TYR A   8      12.129  -4.872  -2.705  0.00  0.00    +0.292 HD
ENDBRANCH  23  26
ENDBRANCH  19  20
ENDBRANCH  16  19
ENDBRANCH  14  16
ENDBRANCH  11  12
BRANCH  11  28
ATOM     28  CB  ASP A   7      16.918   5.019   0.953  0.00  0.00    +0.143 C 
BRANCH  28  29
ATOM     29  CG  ASP A   7      17.778   6.243   0.706  0.00  0.00    +0.367 C 
ATOM     30  OD2 ASP A   7      19.002   6.105   0.843  0.00  0.00    -0.246 OA
ATOM     31  OD1 ASP A   7      17.254   7.302   0.294  0.00  0.00    -0.246 OA
ENDBRANCH  28  29
ENDBRANCH  11  28
ENDBRANCH   8  11
ENDBRANCH   6   7
BRANCH   6  32
ATOM     32  CB  LYS A   6      16.655   6.721  -3.858  0.00  0.00    +0.029 C 
BRANCH  32  33
ATOM     33  CG  LYS A   6      18.194   7.002  -3.841  0.00  0.00    +0.000 C 
BRANCH  33  34
ATOM     34  CD  LYS A   6      18.583   8.318  -4.404  0.00  0.00    -0.024 C 
BRANCH  34  35
ATOM     35  CE  LYS A   6      20.042   8.611  -4.078  0.00  0.00    -0.086 C 
BRANCH  35  36
ATOM     36  NZ  LYS A   6      20.824   7.383  -3.736  0.00  0.00    +0.380 N 
ATOM     37  HZ1 LYS A   6      20.400   6.924  -2.904  0.00  0.00    -0.089 HD
ATOM     38  HZ2 LYS A   6      21.807   7.647  -3.524  0.00  0.00    -0.089 HD
ATOM     39  HZ3 LYS A   6      20.806   6.726  -4.542  0.00  0.00    -0.089 HD
ENDBRANCH  35  36
ENDBRANCH  34  35
ENDBRANCH  33  34
ENDBRANCH  32  33
ENDBRANCH   6  32
ENDBRANCH   4   6
ENDBRANCH   1   2
BRANCH   1  42
ATOM     40  C   GLY A   4      12.397   5.180  -2.038  0.00  0.00    +0.243 C 
ATOM     41  O   GLY A   4      12.976   4.597  -1.111  0.00  0.00    -0.273 OA
ATOM     42  N   GLU A   5      12.334   4.673  -3.275  0.00  0.00    -0.297 N 
ATOM     43  H   GLU A   5      11.793   5.167  -4.013  0.00  0.00    +0.150 HD
BRANCH  40  44
ATOM     44  CA  GLY A   4      11.750   6.522  -1.798  0.00  0.00    +0.176 C 
BRANCH  44  46
ATOM     45  C   PHE A   3      10.068   6.199  -0.050  0.00  0.00    +0.241 C 
ATOM     46  N   GLY A   4      11.256   6.676  -0.409  0.00  0.00    -0.295 N 
ATOM     47  H   GLY A   4      11.847   7.164   0.294  0.00  0.00    +0.150 HD
ATOM     48  O   PHE A   3       9.335   5.610  -0.839  0.00  0.00    -0.273 OA
BRANCH  45  49
ATOM     49  CA  PHE A   3       9.625   6.396   1.399  0.00  0.00    +0.153 C 
BRANCH  49  52
ATOM     50  C   PHE A   2       7.570   7.481   2.194  0.00  0.00    +0.241 C 
ATOM     51  O   PHE A   2       8.201   8.275   2.910  0.00  0.00    -0.273 OA
ATOM     52  N   PHE A   3       8.164   6.535   1.465  0.00  0.00    -0.297 N 
ATOM     53  H   PHE A   3       7.572   5.873   0.924  0.00  0.00    +0.150 HD
BRANCH  50  54
ATOM     54  CA  PHE A   2       6.034   7.555   2.111  0.00  0.00    +0.153 C 
BRANCH  54  56
ATOM     55  C   VAL A   1       4.657   6.580   3.897  0.00  0.00    +0.238 C 
ATOM     56  N   PHE A   2       5.377   7.594   3.431  0.00  0.00    -0.297 N 
ATOM     57  H   PHE A   2       5.481   8.446   4.018  0.00  0.00    +0.150 HD
ATOM     58  O   VAL A   1       4.606   5.484   3.339  0.00  0.00    -0.274 OA
BRANCH  55  59
ATOM     59  CA  VAL A   1       3.862   6.830   5.177  0.00  0.00    +0.145 C 
BRANCH  59  60
ATOM     60  CB  VAL A   1       4.630   6.345   6.465  0.00  0.00    +0.025 C 
ATOM     61  CG2 VAL A   1       5.865   7.204   6.708  0.00  0.00    +0.002 C 
ATOM     62  CG1 VAL A   1       4.975   4.814   6.399  0.00  0.00    +0.002 C 
ENDBRANCH  59  60
BRANCH  59  63
ATOM     63  N   VAL A   1       2.547   6.193   5.049  0.00  0.00    -0.238 NA
ATOM     64  H   VAL A   1       2.492   5.180   4.821  0.00  0.00    +0.142 HD
ENDBRANCH  59  63
ENDBRANCH  55  59
ENDBRANCH  54  56
BRANCH  54  65
ATOM     65  CB  PHE A   2       5.570   8.779   1.297  0.00  0.00    +0.055 C 
BRANCH  65  66
ATOM     66  CG  PHE A   2       4.106   8.730   0.971  0.00  0.00    -0.020 A 
ATOM     67  CD2 PHE A   2       3.143   9.067   1.941  0.00  0.00    -0.004 A 
ATOM     68  CE2 PHE A   2       1.752   8.978   1.658  0.00  0.00    -0.000 A 
ATOM     69  CZ  PHE A   2       1.339   8.532   0.410  0.00  0.00    -0.000 A 
ATOM     70  CE1 PHE A   2       2.292   8.190  -0.559  0.00  0.00    -0.000 A 
ATOM     71  CD1 PHE A   2       3.687   8.267  -0.255  0.00  0.00    -0.004 A 
ENDBRANCH  65  66
ENDBRANCH  54  65
ENDBRANCH  50  54
ENDBRANCH  49  52
BRANCH  49  72
ATOM     72  CB  PHE A   3      10.078   5.205   2.257  0.00  0.00    +0.055 C 
BRANCH  72  73
ATOM     73  CG  PHE A   3      10.062   5.488   3.739  0.00  0.00    -0.020 A 
ATOM     74  CD2 PHE A   3       8.951   5.172   4.508  0.00  0.00    -0.004 A 
ATOM     75  CE2 PHE A   3       8.933   5.437   5.881  0.00  0.00    -0.000 A 
ATOM     76  CZ  PHE A   3      10.016   6.064   6.484  0.00  0.00    -0.000 A 
ATOM     77  CE1 PHE A   3      11.114   6.391   5.749  0.00  0.00    -0.000 A 
ATOM     78  CD1 PHE A   3      11.145   6.105   4.361  0.00  0.00    -0.004 A 
ENDBRANCH  72  73
ENDBRANCH  49  72
ENDBRANCH  45  49
ENDBRANCH  44  46
ENDBRANCH  40  44
ENDBRANCH   1  42
BRANCH   1  79
ATOM     79  CB  GLU A   5      12.526   2.806  -4.894  0.00  0.00    +0.041 C 
BRANCH  79  80
ATOM     80  CG  GLU A   5      11.079   2.303  -4.824  0.00  0.00    +0.116 C 
BRANCH  80  81
ATOM     81  CD  GLU A   5      10.613   1.676  -6.130  0.00  0.00    +0.365 C 
ATOM     82  OE2 GLU A   5       9.486   1.152  -6.128  0.00  0.00    -0.246 OA
ATOM     83  OE1 GLU A   5      11.354   1.741  -7.147  0.00  0.00    -0.246 OA
ENDBRANCH  80  81
ENDBRANCH  79  80
ENDBRANCH   1  79
TORSDOF 34
REMARK  Name = ../refined-set-2016/3coz/3coz_pocket.pdb
REMARK  228 active torsions:
REMARK  status: ('A' for Active; 'I' for Inactive)
REMARK    1  A    between atoms: _1  and  _3
REMARK    2  A    between atoms: _3  and  _4
REMARK    3  A    between atoms: _3  and  _6
REMARK    4  A    between atoms: _6  and  _7
REMARK    5  A    between atoms: _10  and  _12
REMARK    6  A    between atoms: _12  and  _13
REMARK    7  A    between atoms: _12  and  _15
REMARK    8  A    between atoms: _19  and  _20
REMARK    9  A    between atoms: _25  and  _27
REMARK   10  A    between atoms: _27  and  _28
REMARK   11  A    between atoms: _27  and  _30
REMARK   12  A    between atoms: _30  and  _31
REMARK   13  A    between atoms: _34  and  _36
REMARK   14  A    between atoms: _36  and  _37
REMARK   15  A    between atoms: _36  and  _39
REMARK   16  A    between atoms: _39  and  _40
REMARK   17  A    between atoms: _40  and  _41
REMARK   18  A    between atoms: _43  and  _45
REMARK   19  A    between atoms: _45  and  _46
REMARK   20  A    between atoms: _48  and  _50
REMARK   21  A    between atoms: _50  and  _51
REMARK   22  A    between atoms: _54  and  _56
REMARK   23  A    between atoms: _56  and  _57
REMARK   24  A    between atoms: _56  and  _59
REMARK   25  A    between atoms: _59  and  _60
REMARK   26  A    between atoms: _63  and  _65
REMARK   27  A    between atoms: _65  and  _66
REMARK   28  A    between atoms: _65  and  _68
REMARK   29  A    between atoms: _68  and  _69
REMARK   30  A    between atoms: _74  and  _76
REMARK   31  A    between atoms: _76  and  _77
REMARK   32  A    between atoms: _76  and  _79
REMARK   33  A    between atoms: _79  and  _80
REMARK   34  A    between atoms: _80  and  _81
REMARK   35  A    between atoms: _84  and  _86
REMARK   36  A    between atoms: _86  and  _87
REMARK   37  A    between atoms: _89  and  _91
REMARK   38  A    between atoms: _91  and  _92
REMARK   39  A    between atoms: _91  and  _94
REMARK   40  A    between atoms: _94  and  _95
REMARK   41  A    between atoms: _100  and  _102
REMARK   42  A    between atoms: _102  and  _103
REMARK   43  A    between atoms: _102  and  _105
REMARK   44  A    between atoms: _105  and  _106
REMARK   45  A    between atoms: _109  and  _111
REMARK   46  A    between atoms: _111  and  _112
REMARK   47  A    between atoms: _115  and  _117
REMARK   48  A    between atoms: _117  and  _118
REMARK   49  A    between atoms: _117  and  _120
REMARK   50  A    between atoms: _120  and  _121
REMARK   51  A    between atoms: _124  and  _126
REMARK   52  A    between atoms: _126  and  _127
REMARK   53  A    between atoms: _126  and  _129
REMARK   54  A    between atoms: _132  and  _134
REMARK   55  A    between atoms: _134  and  _135
REMARK   56  A    between atoms: _134  and  _137
REMARK   57  A    between atoms: _140  and  _142
REMARK   58  A    between atoms: _142  and  _143
REMARK   59  A    between atoms: _142  and  _145
REMARK   60  A    between atoms: _145  and  _146
REMARK   61  A    between atoms: _148  and  _150
REMARK   62  A    between atoms: _150  and  _151
REMARK   63  A    between atoms: _150  and  _153
REMARK   64  A    between atoms: _153  and  _154
REMARK   65  A    between atoms: _157  and  _159
REMARK   66  A    between atoms: _159  and  _160
REMARK   67  A    between atoms: _159  and  _162
REMARK   68  A    between atoms: _162  and  _163
REMARK   69  A    between atoms: _169  and  _171
REMARK   70  A    between atoms: _171  and  _172
REMARK   71  A    between atoms: _171  and  _174
REMARK   72  A    between atoms: _177  and  _179
REMARK   73  A    between atoms: _179  and  _180
REMARK   74  A    between atoms: _179  and  _182
REMARK   75  A    between atoms: _182  and  _183
REMARK   76  A    between atoms: _188  and  _190
REMARK   77  A    between atoms: _190  and  _191
REMARK   78  A    between atoms: _190  and  _193
REMARK   79  A    between atoms: _193  and  _194
REMARK   80  A    between atoms: _194  and  _195
REMARK   81  A    between atoms: _200  and  _202
REMARK   82  A    between atoms: _202  and  _203
REMARK   83  A    between atoms: _202  and  _205
REMARK   84  A    between atoms: _205  and  _206
REMARK   85  A    between atoms: _212  and  _214
REMARK   86  A    between atoms: _214  and  _215
REMARK   87  A    between atoms: _214  and  _217
REMARK   88  A    between atoms: _217  and  _218
REMARK   89  A    between atoms: _223  and  _224
REMARK   90  A    between atoms: _227  and  _228
REMARK   91  A    between atoms: _233  and  _235
REMARK   92  A    between atoms: _235  and  _236
REMARK   93  A    between atoms: _235  and  _238
REMARK   94  A    between atoms: _238  and  _239
REMARK   95  A    between atoms: _244  and  _246
REMARK   96  A    between atoms: _246  and  _247
REMARK   97  A    between atoms: _246  and  _249
REMARK   98  A    between atoms: _249  and  _250
REMARK   99  A    between atoms: _256  and  _258
REMARK  100  A    between atoms: _258  and  _259
REMARK  101  A    between atoms: _261  and  _263
REMARK  102  A    between atoms: _263  and  _264
REMARK  103  A    between atoms: _263  and  _266
REMARK  104  A    between atoms: _269  and  _271
REMARK  105  A    between atoms: _271  and  _272
REMARK  106  A    between atoms: _271  and  _274
REMARK  107  A    between atoms: _274  and  _275
REMARK  108  A    between atoms: _278  and  _280
REMARK  109  A    between atoms: _280  and  _281
REMARK  110  A    between atoms: _280  and  _283
REMARK  111  A    between atoms: _286  and  _288
REMARK  112  A    between atoms: _288  and  _289
REMARK  113  A    between atoms: _288  and  _291
REMARK  114  A    between atoms: _294  and  _296
REMARK  115  A    between atoms: _296  and  _297
REMARK  116  A    between atoms: _296  and  _299
REMARK  117  A    between atoms: _299  and  _300
REMARK  118  A    between atoms: _303  and  _305
REMARK  119  A    between atoms: _305  and  _306
REMARK  120  A    between atoms: _305  and  _308
REMARK  121  A    between atoms: _311  and  _313
REMARK  122  A    between atoms: _313  and  _314
REMARK  123  A    between atoms: _313  and  _316
REMARK  124  A    between atoms: _316  and  _317
REMARK  125  A    between atoms: _323  and  _325
REMARK  126  A    between atoms: _325  and  _326
REMARK  127  A    between atoms: _325  and  _328
REMARK  128  A    between atoms: _328  and  _329
REMARK  129  A    between atoms: _335  and  _337
REMARK  130  A    between atoms: _337  and  _338
REMARK  131  A    between atoms: _340  and  _342
REMARK  132  A    between atoms: _342  and  _343
REMARK  133  A    between atoms: _342  and  _345
REMARK  134  A    between atoms: _345  and  _346
REMARK  135  A    between atoms: _346  and  _347
REMARK  136  A    between atoms: _350  and  _352
REMARK  137  A    between atoms: _352  and  _353
REMARK  138  A    between atoms: _352  and  _355
REMARK  139  A    between atoms: _355  and  _356
REMARK  140  A    between atoms: _356  and  _357
REMARK  141  A    between atoms: _357  and  _358
REMARK  142  A    between atoms: _358  and  _359
REMARK  143  A    between atoms: _363  and  _365
REMARK  144  A    between atoms: _365  and  _366
REMARK  145  A    between atoms: _365  and  _368
REMARK  146  A    between atoms: _368  and  _369
REMARK  147  A    between atoms: _372  and  _374
REMARK  148  A    between atoms: _374  and  _375
REMARK  149  A    between atoms: _374  and  _377
REMARK  150  A    between atoms: _377  and  _378
REMARK  151  A    between atoms: _383  and  _384
REMARK  152  A    between atoms: _386  and  _388
REMARK  153  A    between atoms: _388  and  _389
REMARK  154  A    between atoms: _388  and  _391
REMARK  155  A    between atoms: _391  and  _392
REMARK  156  A    between atoms: _392  and  _393
REMARK  157  A    between atoms: _398  and  _400
REMARK  158  A    between atoms: _400  and  _401
REMARK  159  A    between atoms: _400  and  _403
REMARK  160  A    between atoms: _403  and  _404
REMARK  161  A    between atoms: _407  and  _409
REMARK  162  A    between atoms: _409  and  _410
REMARK  163  A    between atoms: _409  and  _412
REMARK  164  A    between atoms: _412  and  _413
REMARK  165  A    between atoms: _416  and  _418
REMARK  166  A    between atoms: _418  and  _419
REMARK  167  A    between atoms: _418  and  _421
REMARK  168  A    between atoms: _424  and  _426
REMARK  169  A    between atoms: _426  and  _427
REMARK  170  A    between atoms: _429  and  _431
REMARK  171  A    between atoms: _431  and  _432
REMARK  172  A    between atoms: _431  and  _434
REMARK  173  A    between atoms: _438  and  _439
REMARK  174  A    between atoms: _444  and  _446
REMARK  175  A    between atoms: _446  and  _447
REMARK  176  A    between atoms: _446  and  _449
REMARK  177  A    between atoms: _449  and  _450
REMARK  178  A    between atoms: _453  and  _455
REMARK  179  A    between atoms: _455  and  _456
REMARK  180  A    between atoms: _455  and  _458
REMARK  181  A    between atoms: _461  and  _463
REMARK  182  A    between atoms: _463  and  _464
REMARK  183  A    between atoms: _463  and  _466
REMARK  184  A    between atoms: _466  and  _467
REMARK  185  A    between atoms: _467  and  _468
REMARK  186  A    between atoms: _468  and  _469
REMARK  187  A    between atoms: _478  and  _480
REMARK  188  A    between atoms: _480  and  _481
REMARK  189  A    between atoms: _480  and  _483
REMARK  190  A    between atoms: _483  and  _484
REMARK  191  A    between atoms: _484  and  _485
REMARK  192  A    between atoms: _488  and  _490
REMARK  193  A    between atoms: _490  and  _491
REMARK  194  A    between atoms: _490  and  _493
REMARK  195  A    between atoms: _493  and  _494
REMARK  196  A    between atoms: _497  and  _499
REMARK  197  A    between atoms: _499  and  _500
REMARK  198  A    between atoms: _503  and  _505
REMARK  199  A    between atoms: _505  and  _506
REMARK  200  A    between atoms: _505  and  _508
REMARK  201  A    between atoms: _508  and  _509
REMARK  202  A    between atoms: _509  and  _510
REMARK  203  A    between atoms: _512  and  _514
REMARK  204  A    between atoms: _514  and  _515
REMARK  205  A    between atoms: _514  and  _517
REMARK  206  A    between atoms: _517  and  _518
REMARK  207  A    between atoms: _520  and  _522
REMARK  208  A    between atoms: _522  and  _523
REMARK  209  A    between atoms: _522  and  _525
REMARK  210  A    between atoms: _525  and  _526
REMARK  211  A    between atoms: _528  and  _530
REMARK  212  A    between atoms: _530  and  _531
REMARK  213  A    between atoms: _530  and  _533
REMARK  214  A    between atoms: _533  and  _534
REMARK  215  A    between atoms: _534  and  _535
REMARK  216  A    between atoms: _535  and  _536
REMARK  217  A    between atoms: _545  and  _547
REMARK  218  A    between atoms: _547  and  _548
REMARK  219  A    between atoms: _547  and  _550
REMARK  220  A    between atoms: _550  and  _551
REMARK  221  A    between atoms: _556  and  _558
REMARK  222  A    between atoms: _558  and  _559
REMARK  223  A    between atoms: _558  and  _561
REMARK  224  A    between atoms: _561  and  _562
REMARK  225  A    between atoms: _565  and  _567
REMARK  226  A    between atoms: _567  and  _568
REMARK  227  A    between atoms: _567  and  _570
REMARK  228  A    between atoms: _570  and  _571
REMARK                            x       y       z     vdW  Elec       q    Type
REMARK                         _______ _______ _______ _____ _____    ______ ____
ROOT
ATOM      1  C   GLN A   1      14.179   1.131   4.129  0.00  0.00    +0.238 C 
ATOM      2  O   GLN A   1      13.509   0.856   5.111  0.00  0.00    -0.274 OA
ATOM      3  N   LEU A   2      13.672   1.224   2.901  0.00  0.00    -0.298 N 
ATOM      4  H   LEU A   2      14.309   1.496   2.126  0.00  0.00    +0.150 HD
ENDROOT
BRANCH   1   5
ATOM      5  CA  GLN A   1      15.686   1.410   4.266  0.00  0.00    +0.145 C 
BRANCH   5   6
ATOM      6  N   GLN A   1      16.458   0.697   3.255  0.00  0.00    -0.238 NA
ATOM      7  H   GLN A   1      17.049   1.236   2.590  0.00  0.00    +0.142 HD
ENDBRANCH   5   6
BRANCH   5   8
ATOM      8  CB  GLN A   1      15.918   2.908   4.094  0.00  0.00    +0.036 C 
BRANCH   8   9
ATOM      9  CG  GLN A   1      15.055   3.764   4.978  0.00  0.00    +0.087 C 
BRANCH   9  10
ATOM     10  CD  GLN A   1      15.538   5.175   4.965  0.00  0.00    +0.219 C 
ATOM     11  OE1 GLN A   1      16.399   5.549   5.774  0.00  0.00    -0.275 OA
ATOM     12  NE2 GLN A   1      15.029   5.972   4.015  0.00  0.00    -0.329 N 
ATOM     13 HE21 GLN A   1      15.356   6.956   3.932  0.00  0.00    +0.145 HD
ATOM     14 HE22 GLN A   1      14.307   5.606   3.361  0.00  0.00    +0.145 HD
ENDBRANCH   9  10
ENDBRANCH   8   9
ENDBRANCH   5   8
ENDBRANCH   1   5
BRANCH   3  15
ATOM     15  CA  LEU A   2      12.267   0.964   2.582  0.00  0.00    +0.137 C 
BRANCH  15  16
ATOM     16  C   LEU A   2      11.862  -0.428   2.999  0.00  0.00    +0.227 C 
ATOM     17  O   LEU A   2      10.821  -0.613   3.612  0.00  0.00    -0.286 OA
ENDBRANCH  15  16
BRANCH  15  18
ATOM     18  CB  LEU A   2      12.012   1.151   1.068  0.00  0.00    +0.028 C 
BRANCH  18  19
ATOM     19  CG  LEU A   2      10.665   0.822   0.402  0.00  0.00    +0.002 C 
ATOM     20  CD2 LEU A   2       9.483   1.529   1.042  0.00  0.00    +0.000 C 
ATOM     21  CD1 LEU A   2      10.744   1.159  -1.126  0.00  0.00    +0.000 C 
ENDBRANCH  18  19
ENDBRANCH  15  18
ENDBRANCH   3  15
TORSDOF 9
REMARK  Name = ../refined-set-2016/3coz/3coz_pocket.pdb
REMARK  228 active torsions:
REMARK  status: ('A' for Active; 'I' for Inactive)
REMARK    1  A    between atoms: _1  and  _3
REMARK    2  A    between atoms: _3  and  _4
REMARK    3  A    between atoms: _3  and  _6
REMARK    4  A    between atoms: _6  and  _7
REMARK    5  A    between atoms: _10  and  _12
REMARK    6  A    between atoms: _12  and  _13
REMARK    7  A    between atoms: _12  and  _15
REMARK    8  A    between atoms: _19  and  _20
REMARK    9  A    between atoms: _25  and  _27
REMARK   10  A    between atoms: _27  and  _28
REMARK   11  A    between atoms: _27  and  _30
REMARK   12  A    between atoms: _30  and  _31
REMARK   13  A    between atoms: _34  and  _36
REMARK   14  A    between atoms: _36  and  _37
REMARK   15  A    between atoms: _36  and  _39
REMARK   16  A    between atoms: _39  and  _40
REMARK   17  A    between atoms: _40  and  _41
REMARK   18  A    between atoms: _43  and  _45
REMARK   19  A    between atoms: _45  and  _46
REMARK   20  A    between atoms: _48  and  _50
REMARK   21  A    between atoms: _50  and  _51
REMARK   22  A    between atoms: _54  and  _56
REMARK   23  A    between atoms: _56  and  _57
REMARK   24  A    between atoms: _56  and  _59
REMARK   25  A    between atoms: _59  and  _60
REMARK   26  A    between atoms: _63  and  _65
REMARK   27  A    between atoms: _65  and  _66
REMARK   28  A    between atoms: _65  and  _68
REMARK   29  A    between atoms: _68  and  _69
REMARK   30  A    between atoms: _74  and  _76
REMARK   31  A    between atoms: _76  and  _77
REMARK   32  A    between atoms: _76  and  _79
REMARK   33  A    between atoms: _79  and  _80
REMARK   34  A    between atoms: _80  and  _81
REMARK   35  A    between atoms: _84  and  _86
REMARK   36  A    between atoms: _86  and  _87
REMARK   37  A    between atoms: _89  and  _91
REMARK   38  A    between atoms: _91  and  _92
REMARK   39  A    between atoms: _91  and  _94
REMARK   40  A    between atoms: _94  and  _95
REMARK   41  A    between atoms: _100  and  _102
REMARK   42  A    between atoms: _102  and  _103
REMARK   43  A    between atoms: _102  and  _105
REMARK   44  A    between atoms: _105  and  _106
REMARK   45  A    between atoms: _109  and  _111
REMARK   46  A    between atoms: _111  and  _112
REMARK   47  A    between atoms: _115  and  _117
REMARK   48  A    between atoms: _117  and  _118
REMARK   49  A    between atoms: _117  and  _120
REMARK   50  A    between atoms: _120  and  _121
REMARK   51  A    between atoms: _124  and  _126
REMARK   52  A    between atoms: _126  and  _127
REMARK   53  A    between atoms: _126  and  _129
REMARK   54  A    between atoms: _132  and  _134
REMARK   55  A    between atoms: _134  and  _135
REMARK   56  A    between atoms: _134  and  _137
REMARK   57  A    between atoms: _140  and  _142
REMARK   58  A    between atoms: _142  and  _143
REMARK   59  A    between atoms: _142  and  _145
REMARK   60  A    between atoms: _145  and  _146
REMARK   61  A    between atoms: _148  and  _150
REMARK   62  A    between atoms: _150  and  _151
REMARK   63  A    between atoms: _150  and  _153
REMARK   64  A    between atoms: _153  and  _154
REMARK   65  A    between atoms: _157  and  _159
REMARK   66  A    between atoms: _159  and  _160
REMARK   67  A    between atoms: _159  and  _162
REMARK   68  A    between atoms: _162  and  _163
REMARK   69  A    between atoms: _169  and  _171
REMARK   70  A    between atoms: _171  and  _172
REMARK   71  A    between atoms: _171  and  _174
REMARK   72  A    between atoms: _177  and  _179
REMARK   73  A    between atoms: _179  and  _180
REMARK   74  A    between atoms: _179  and  _182
REMARK   75  A    between atoms: _182  and  _183
REMARK   76  A    between atoms: _188  and  _190
REMARK   77  A    between atoms: _190  and  _191
REMARK   78  A    between atoms: _190  and  _193
REMARK   79  A    between atoms: _193  and  _194
REMARK   80  A    between atoms: _194  and  _195
REMARK   81  A    between atoms: _200  and  _202
REMARK   82  A    between atoms: _202  and  _203
REMARK   83  A    between atoms: _202  and  _205
REMARK   84  A    between atoms: _205  and  _206
REMARK   85  A    between atoms: _212  and  _214
REMARK   86  A    between atoms: _214  and  _215
REMARK   87  A    between atoms: _214  and  _217
REMARK   88  A    between atoms: _217  and  _218
REMARK   89  A    between atoms: _223  and  _224
REMARK   90  A    between atoms: _227  and  _228
REMARK   91  A    between atoms: _233  and  _235
REMARK   92  A    between atoms: _235  and  _236
REMARK   93  A    between atoms: _235  and  _238
REMARK   94  A    between atoms: _238  and  _239
REMARK   95  A    between atoms: _244  and  _246
REMARK   96  A    between atoms: _246  and  _247
REMARK   97  A    between atoms: _246  and  _249
REMARK   98  A    between atoms: _249  and  _250
REMARK   99  A    between atoms: _256  and  _258
REMARK  100  A    between atoms: _258  and  _259
REMARK  101  A    between atoms: _261  and  _263
REMARK  102  A    between atoms: _263  and  _264
REMARK  103  A    between atoms: _263  and  _266
REMARK  104  A    between atoms: _269  and  _271
REMARK  105  A    between atoms: _271  and  _272
REMARK  106  A    between atoms: _271  and  _274
REMARK  107  A    between atoms: _274  and  _275
REMARK  108  A    between atoms: _278  and  _280
REMARK  109  A    between atoms: _280  and  _281
REMARK  110  A    between atoms: _280  and  _283
REMARK  111  A    between atoms: _286  and  _288
REMARK  112  A    between atoms: _288  and  _289
REMARK  113  A    between atoms: _288  and  _291
REMARK  114  A    between atoms: _294  and  _296
REMARK  115  A    between atoms: _296  and  _297
REMARK  116  A    between atoms: _296  and  _299
REMARK  117  A    between atoms: _299  and  _300
REMARK  118  A    between atoms: _303  and  _305
REMARK  119  A    between atoms: _305  and  _306
REMARK  120  A    between atoms: _305  and  _308
REMARK  121  A    between atoms: _311  and  _313
REMARK  122  A    between atoms: _313  and  _314
REMARK  123  A    between atoms: _313  and  _316
REMARK  124  A    between atoms: _316  and  _317
REMARK  125  A    between atoms: _323  and  _325
REMARK  126  A    between atoms: _325  and  _326
REMARK  127  A    between atoms: _325  and  _328
REMARK  128  A    between atoms: _328  and  _329
REMARK  129  A    between atoms: _335  and  _337
REMARK  130  A    between atoms: _337  and  _338
REMARK  131  A    between atoms: _340  and  _342
REMARK  132  A    between atoms: _342  and  _343
REMARK  133  A    between atoms: _342  and  _345
REMARK  134  A    between atoms: _345  and  _346
REMARK  135  A    between atoms: _346  and  _347
REMARK  136  A    between atoms: _350  and  _352
REMARK  137  A    between atoms: _352  and  _353
REMARK  138  A    between atoms: _352  and  _355
REMARK  139  A    between atoms: _355  and  _356
REMARK  140  A    between atoms: _356  and  _357
REMARK  141  A    between atoms: _357  and  _358
REMARK  142  A    between atoms: _358  and  _359
REMARK  143  A    between atoms: _363  and  _365
REMARK  144  A    between atoms: _365  and  _366
REMARK  145  A    between atoms: _365  and  _368
REMARK  146  A    between atoms: _368  and  _369
REMARK  147  A    between atoms: _372  and  _374
REMARK  148  A    between atoms: _374  and  _375
REMARK  149  A    between atoms: _374  and  _377
REMARK  150  A    between atoms: _377  and  _378
REMARK  151  A    between atoms: _383  and  _384
REMARK  152  A    between atoms: _386  and  _388
REMARK  153  A    between atoms: _388  and  _389
REMARK  154  A    between atoms: _388  and  _391
REMARK  155  A    between atoms: _391  and  _392
REMARK  156  A    between atoms: _392  and  _393
REMARK  157  A    between atoms: _398  and  _400
REMARK  158  A    between atoms: _400  and  _401
REMARK  159  A    between atoms: _400  and  _403
REMARK  160  A    between atoms: _403  and  _404
REMARK  161  A    between atoms: _407  and  _409
REMARK  162  A    between atoms: _409  and  _410
REMARK  163  A    between atoms: _409  and  _412
REMARK  164  A    between atoms: _412  and  _413
REMARK  165  A    between atoms: _416  and  _418
REMARK  166  A    between atoms: _418  and  _419
REMARK  167  A    between atoms: _418  and  _421
REMARK  168  A    between atoms: _424  and  _426
REMARK  169  A    between atoms: _426  and  _427
REMARK  170  A    between atoms: _429  and  _431
REMARK  171  A    between atoms: _431  and  _432
REMARK  172  A    between atoms: _431  and  _434
REMARK  173  A    between atoms: _438  and  _439
REMARK  174  A    between atoms: _444  and  _446
REMARK  175  A    between atoms: _446  and  _447
REMARK  176  A    between atoms: _446  and  _449
REMARK  177  A    between atoms: _449  and  _450
REMARK  178  A    between atoms: _453  and  _455
REMARK  179  A    between atoms: _455  and  _456
REMARK  180  A    between atoms: _455  and  _458
REMARK  181  A    between atoms: _461  and  _463
REMARK  182  A    between atoms: _463  and  _464
REMARK  183  A    between atoms: _463  and  _466
REMARK  184  A    between atoms: _466  and  _467
REMARK  185  A    between atoms: _467  and  _468
REMARK  186  A    between atoms: _468  and  _469
REMARK  187  A    between atoms: _478  and  _480
REMARK  188  A    between atoms: _480  and  _481
REMARK  189  A    between atoms: _480  and  _483
REMARK  190  A    between atoms: _483  and  _484
REMARK  191  A    between atoms: _484  and  _485
REMARK  192  A    between atoms: _488  and  _490
REMARK  193  A    between atoms: _490  and  _491
REMARK  194  A    between atoms: _490  and  _493
REMARK  195  A    between atoms: _493  and  _494
REMARK  196  A    between atoms: _497  and  _499
REMARK  197  A    between atoms: _499  and  _500
REMARK  198  A    between atoms: _503  and  _505
REMARK  199  A    between atoms: _505  and  _506
REMARK  200  A    between atoms: _505  and  _508
REMARK  201  A    between atoms: _508  and  _509
REMARK  202  A    between atoms: _509  and  _510
REMARK  203  A    between atoms: _512  and  _514
REMARK  204  A    between atoms: _514  and  _515
REMARK  205  A    between atoms: _514  and  _517
REMARK  206  A    between atoms: _517  and  _518
REMARK  207  A    between atoms: _520  and  _522
REMARK  208  A    between atoms: _522  and  _523
REMARK  209  A    between atoms: _522  and  _525
REMARK  210  A    between atoms: _525  and  _526
REMARK  211  A    between atoms: _528  and  _530
REMARK  212  A    between atoms: _530  and  _531
REMARK  213  A    between atoms: _530  and  _533
REMARK  214  A    between atoms: _533  and  _534
REMARK  215  A    between atoms: _534  and  _535
REMARK  216  A    between atoms: _535  and  _536
REMARK  217  A    between atoms: _545  and  _547
REMARK  218  A    between atoms: _547  and  _548
REMARK  219  A    between atoms: _547  and  _550
REMARK  220  A    between atoms: _550  and  _551
REMARK  221  A    between atoms: _556  and  _558
REMARK  222  A    between atoms: _558  and  _559
REMARK  223  A    between atoms: _558  and  _561
REMARK  224  A    between atoms: _561  and  _562
REMARK  225  A    between atoms: _565  and  _567
REMARK  226  A    between atoms: _567  and  _568
REMARK  227  A    between atoms: _567  and  _570
REMARK  228  A    between atoms: _570  and  _571
REMARK                            x       y       z     vdW  Elec       q    Type
REMARK                         _______ _______ _______ _____ _____    ______ ____
ROOT
ATOM      1  CA  ILE A   1      10.594   0.007   7.314  0.00  0.00    +0.133 C 
ENDROOT
BRANCH   1   2
ATOM      2  N   ILE A   1      11.789  -0.669   6.807  0.00  0.00    -0.239 NA
ATOM      3  H   ILE A   1      12.282  -0.297   5.970  0.00  0.00    +0.142 HD
ENDBRANCH   1   2
BRANCH   1   4
ATOM      4  C   ILE A   1       9.355  -0.878   7.147  0.00  0.00    +0.224 C 
ATOM      5  O   ILE A   1       8.525  -0.945   8.028  0.00  0.00    -0.287 OA
ENDBRANCH   1   4
BRANCH   1   6
ATOM      6  CB  ILE A   1      10.398   1.338   6.624  0.00  0.00    +0.023 C 
ATOM      7  CG2 ILE A   1       9.036   1.950   7.014  0.00  0.00    +0.002 C 
BRANCH   6   8
ATOM      8  CG1 ILE A   1      11.579   2.285   6.968  0.00  0.00    +0.002 C 
ATOM      9  CD1 ILE A   1      11.670   2.676   8.441  0.00  0.00    +0.000 C 
ENDBRANCH   6   8
ENDBRANCH   1   6
TORSDOF 4
REMARK  Name = ../refined-set-2016/3coz/3coz_pocket.pdb
REMARK  228 active torsions:
REMARK  status: ('A' for Active; 'I' for Inactive)
REMARK    1  A    between atoms: _1  and  _3
REMARK    2  A    between atoms: _3  and  _4
REMARK    3  A    between atoms: _3  and  _6
REMARK    4  A    between atoms: _6  and  _7
REMARK    5  A    between atoms: _10  and  _12
REMARK    6  A    between atoms: _12  and  _13
REMARK    7  A    between atoms: _12  and  _15
REMARK    8  A    between atoms: _19  and  _20
REMARK    9  A    between atoms: _25  and  _27
REMARK   10  A    between atoms: _27  and  _28
REMARK   11  A    between atoms: _27  and  _30
REMARK   12  A    between atoms: _30  and  _31
REMARK   13  A    between atoms: _34  and  _36
REMARK   14  A    between atoms: _36  and  _37
REMARK   15  A    between atoms: _36  and  _39
REMARK   16  A    between atoms: _39  and  _40
REMARK   17  A    between atoms: _40  and  _41
REMARK   18  A    between atoms: _43  and  _45
REMARK   19  A    between atoms: _45  and  _46
REMARK   20  A    between atoms: _48  and  _50
REMARK   21  A    between atoms: _50  and  _51
REMARK   22  A    between atoms: _54  and  _56
REMARK   23  A    between atoms: _56  and  _57
REMARK   24  A    between atoms: _56  and  _59
REMARK   25  A    between atoms: _59  and  _60
REMARK   26  A    between atoms: _63  and  _65
REMARK   27  A    between atoms: _65  and  _66
REMARK   28  A    between atoms: _65  and  _68
REMARK   29  A    between atoms: _68  and  _69
REMARK   30  A    between atoms: _74  and  _76
REMARK   31  A    between atoms: _76  and  _77
REMARK   32  A    between atoms: _76  and  _79
REMARK   33  A    between atoms: _79  and  _80
REMARK   34  A    between atoms: _80  and  _81
REMARK   35  A    between atoms: _84  and  _86
REMARK   36  A    between atoms: _86  and  _87
REMARK   37  A    between atoms: _89  and  _91
REMARK   38  A    between atoms: _91  and  _92
REMARK   39  A    between atoms: _91  and  _94
REMARK   40  A    between atoms: _94  and  _95
REMARK   41  A    between atoms: _100  and  _102
REMARK   42  A    between atoms: _102  and  _103
REMARK   43  A    between atoms: _102  and  _105
REMARK   44  A    between atoms: _105  and  _106
REMARK   45  A    between atoms: _109  and  _111
REMARK   46  A    between atoms: _111  and  _112
REMARK   47  A    between atoms: _115  and  _117
REMARK   48  A    between atoms: _117  and  _118
REMARK   49  A    between atoms: _117  and  _120
REMARK   50  A    between atoms: _120  and  _121
REMARK   51  A    between atoms: _124  and  _126
REMARK   52  A    between atoms: _126  and  _127
REMARK   53  A    between atoms: _126  and  _129
REMARK   54  A    between atoms: _132  and  _134
REMARK   55  A    between atoms: _134  and  _135
REMARK   56  A    between atoms: _134  and  _137
REMARK   57  A    between atoms: _140  and  _142
REMARK   58  A    between atoms: _142  and  _143
REMARK   59  A    between atoms: _142  and  _145
REMARK   60  A    between atoms: _145  and  _146
REMARK   61  A    between atoms: _148  and  _150
REMARK   62  A    between atoms: _150  and  _151
REMARK   63  A    between atoms: _150  and  _153
REMARK   64  A    between atoms: _153  and  _154
REMARK   65  A    between atoms: _157  and  _159
REMARK   66  A    between atoms: _159  and  _160
REMARK   67  A    between atoms: _159  and  _162
REMARK   68  A    between atoms: _162  and  _163
REMARK   69  A    between atoms: _169  and  _171
REMARK   70  A    between atoms: _171  and  _172
REMARK   71  A    between atoms: _171  and  _174
REMARK   72  A    between atoms: _177  and  _179
REMARK   73  A    between atoms: _179  and  _180
REMARK   74  A    between atoms: _179  and  _182
REMARK   75  A    between atoms: _182  and  _183
REMARK   76  A    between atoms: _188  and  _190
REMARK   77  A    between atoms: _190  and  _191
REMARK   78  A    between atoms: _190  and  _193
REMARK   79  A    between atoms: _193  and  _194
REMARK   80  A    between atoms: _194  and  _195
REMARK   81  A    between atoms: _200  and  _202
REMARK   82  A    between atoms: _202  and  _203
REMARK   83  A    between atoms: _202  and  _205
REMARK   84  A    between atoms: _205  and  _206
REMARK   85  A    between atoms: _212  and  _214
REMARK   86  A    between atoms: _214  and  _215
REMARK   87  A    between atoms: _214  and  _217
REMARK   88  A    between atoms: _217  and  _218
REMARK   89  A    between atoms: _223  and  _224
REMARK   90  A    between atoms: _227  and  _228
REMARK   91  A    between atoms: _233  and  _235
REMARK   92  A    between atoms: _235  and  _236
REMARK   93  A    between atoms: _235  and  _238
REMARK   94  A    between atoms: _238  and  _239
REMARK   95  A    between atoms: _244  and  _246
REMARK   96  A    between atoms: _246  and  _247
REMARK   97  A    between atoms: _246  and  _249
REMARK   98  A    between atoms: _249  and  _250
REMARK   99  A    between atoms: _256  and  _258
REMARK  100  A    between atoms: _258  and  _259
REMARK  101  A    between atoms: _261  and  _263
REMARK  102  A    between atoms: _263  and  _264
REMARK  103  A    between atoms: _263  and  _266
REMARK  104  A    between atoms: _269  and  _271
REMARK  105  A    between atoms: _271  and  _272
REMARK  106  A    between atoms: _271  and  _274
REMARK  107  A    between atoms: _274  and  _275
REMARK  108  A    between atoms: _278  and  _280
REMARK  109  A    between atoms: _280  and  _281
REMARK  110  A    between atoms: _280  and  _283
REMARK  111  A    between atoms: _286  and  _288
REMARK  112  A    between atoms: _288  and  _289
REMARK  113  A    between atoms: _288  and  _291
REMARK  114  A    between atoms: _294  and  _296
REMARK  115  A    between atoms: _296  and  _297
REMARK  116  A    between atoms: _296  and  _299
REMARK  117  A    between atoms: _299  and  _300
REMARK  118  A    between atoms: _303  and  _305
REMARK  119  A    between atoms: _305  and  _306
REMARK  120  A    between atoms: _305  and  _308
REMARK  121  A    between atoms: _311  and  _313
REMARK  122  A    between atoms: _313  and  _314
REMARK  123  A    between atoms: _313  and  _316
REMARK  124  A    between atoms: _316  and  _317
REMARK  125  A    between atoms: _323  and  _325
REMARK  126  A    between atoms: _325  and  _326
REMARK  127  A    between atoms: _325  and  _328
REMARK  128  A    between atoms: _328  and  _329
REMARK  129  A    between atoms: _335  and  _337
REMARK  130  A    between atoms: _337  and  _338
REMARK  131  A    between atoms: _340  and  _342
REMARK  132  A    between atoms: _342  and  _343
REMARK  133  A    between atoms: _342  and  _345
REMARK  134  A    between atoms: _345  and  _346
REMARK  135  A    between atoms: _346  and  _347
REMARK  136  A    between atoms: _350  and  _352
REMARK  137  A    between atoms: _352  and  _353
REMARK  138  A    between atoms: _352  and  _355
REMARK  139  A    between atoms: _355  and  _356
REMARK  140  A    between atoms: _356  and  _357
REMARK  141  A    between atoms: _357  and  _358
REMARK  142  A    between atoms: _358  and  _359
REMARK  143  A    between atoms: _363  and  _365
REMARK  144  A    between atoms: _365  and  _366
REMARK  145  A    between atoms: _365  and  _368
REMARK  146  A    between atoms: _368  and  _369
REMARK  147  A    between atoms: _372  and  _374
REMARK  148  A    between atoms: _374  and  _375
REMARK  149  A    between atoms: _374  and  _377
REMARK  150  A    between atoms: _377  and  _378
REMARK  151  A    between atoms: _383  and  _384
REMARK  152  A    between atoms: _386  and  _388
REMARK  153  A    between atoms: _388  and  _389
REMARK  154  A    between atoms: _388  and  _391
REMARK  155  A    between atoms: _391  and  _392
REMARK  156  A    between atoms: _392  and  _393
REMARK  157  A    between atoms: _398  and  _400
REMARK  158  A    between atoms: _400  and  _401
REMARK  159  A    between atoms: _400  and  _403
REMARK  160  A    between atoms: _403  and  _404
REMARK  161  A    between atoms: _407  and  _409
REMARK  162  A    between atoms: _409  and  _410
REMARK  163  A    between atoms: _409  and  _412
REMARK  164  A    between atoms: _412  and  _413
REMARK  165  A    between atoms: _416  and  _418
REMARK  166  A    between atoms: _418  and  _419
REMARK  167  A    between atoms: _418  and  _421
REMARK  168  A    between atoms: _424  and  _426
REMARK  169  A    between atoms: _426  and  _427
REMARK  170  A    between atoms: _429  and  _431
REMARK  171  A    between atoms: _431  and  _432
REMARK  172  A    between atoms: _431  and  _434
REMARK  173  A    between atoms: _438  and  _439
REMARK  174  A    between atoms: _444  and  _446
REMARK  175  A    between atoms: _446  and  _447
REMARK  176  A    between atoms: _446  and  _449
REMARK  177  A    between atoms: _449  and  _450
REMARK  178  A    between atoms: _453  and  _455
REMARK  179  A    between atoms: _455  and  _456
REMARK  180  A    between atoms: _455  and  _458
REMARK  181  A    between atoms: _461  and  _463
REMARK  182  A    between atoms: _463  and  _464
REMARK  183  A    between atoms: _463  and  _466
REMARK  184  A    between atoms: _466  and  _467
REMARK  185  A    between atoms: _467  and  _468
REMARK  186  A    between atoms: _468  and  _469
REMARK  187  A    between atoms: _478  and  _480
REMARK  188  A    between atoms: _480  and  _481
REMARK  189  A    between atoms: _480  and  _483
REMARK  190  A    between atoms: _483  and  _484
REMARK  191  A    between atoms: _484  and  _485
REMARK  192  A    between atoms: _488  and  _490
REMARK  193  A    between atoms: _490  and  _491
REMARK  194  A    between atoms: _490  and  _493
REMARK  195  A    between atoms: _493  and  _494
REMARK  196  A    between atoms: _497  and  _499
REMARK  197  A    between atoms: _499  and  _500
REMARK  198  A    between atoms: _503  and  _505
REMARK  199  A    between atoms: _505  and  _506
REMARK  200  A    between atoms: _505  and  _508
REMARK  201  A    between atoms: _508  and  _509
REMARK  202  A    between atoms: _509  and  _510
REMARK  203  A    between atoms: _512  and  _514
REMARK  204  A    between atoms: _514  and  _515
REMARK  205  A    between atoms: _514  and  _517
REMARK  206  A    between atoms: _517  and  _518
REMARK  207  A    between atoms: _520  and  _522
REMARK  208  A    between atoms: _522  and  _523
REMARK  209  A    between atoms: _522  and  _525
REMARK  210  A    between atoms: _525  and  _526
REMARK  211  A    between atoms: _528  and  _530
REMARK  212  A    between atoms: _530  and  _531
REMARK  213  A    between atoms: _530  and  _533
REMARK  214  A    between atoms: _533  and  _534
REMARK  215  A    between atoms: _534  and  _535
REMARK  216  A    between atoms: _535  and  _536
REMARK  217  A    between atoms: _545  and  _547
REMARK  218  A    between atoms: _547  and  _548
REMARK  219  A    between atoms: _547  and  _550
REMARK  220  A    between atoms: _550  and  _551
REMARK  221  A    between atoms: _556  and  _558
REMARK  222  A    between atoms: _558  and  _559
REMARK  223  A    between atoms: _558  and  _561
REMARK  224  A    between atoms: _561  and  _562
REMARK  225  A    between atoms: _565  and  _567
REMARK  226  A    between atoms: _567  and  _568
REMARK  227  A    between atoms: _567  and  _570
REMARK  228  A    between atoms: _570  and  _571
REMARK                            x       y       z     vdW  Elec       q    Type
REMARK                         _______ _______ _______ _____ _____    ______ ____
ROOT
ATOM      1  C   THR A   5      13.482   8.151  -8.703  0.00  0.00    +0.243 C 
ATOM      2  N   VAL A   6      13.714   9.392  -8.290  0.00  0.00    -0.297 N 
ATOM      3  H   VAL A   6      13.892   9.572  -7.281  0.00  0.00    +0.150 HD
ATOM      4  O   THR A   5      13.244   7.880  -9.886  0.00  0.00    -0.273 OA
ENDROOT
BRANCH   2   5
ATOM      5  CA  VAL A   6      13.723  10.502  -9.227  0.00  0.00    +0.149 C 
BRANCH   5   6
ATOM      6  C   VAL A   6      15.158  10.701  -9.697  0.00  0.00    +0.241 C 
ATOM      7  O   VAL A   6      16.095  10.715  -8.874  0.00  0.00    -0.273 OA
ATOM      8  N   ARG A   7      15.320  10.823 -11.020  0.00  0.00    -0.297 N 
ATOM      9  H   ARG A   7      14.477  10.890 -11.626  0.00  0.00    +0.150 HD
BRANCH   8  10
ATOM     10  CA  ARG A   7      16.655  10.866 -11.648  0.00  0.00    +0.149 C 
BRANCH  10  11
ATOM     11  C   ARG A   7      16.923  12.171 -12.412  0.00  0.00    +0.241 C 
ATOM     12  N   GLU A   8      18.185  12.576 -12.481  0.00  0.00    -0.298 N 
ATOM     13  H   GLU A   8      18.911  12.091 -11.916  0.00  0.00    +0.150 HD
ATOM     14  O   ARG A   7      15.999  12.798 -12.923  0.00  0.00    -0.273 OA
BRANCH  12  15
ATOM     15  CA  GLU A   8      18.567  13.694 -13.340  0.00  0.00    +0.137 C 
BRANCH  15  16
ATOM     16  C   GLU A   8      18.353  13.260 -14.793  0.00  0.00    +0.227 C 
ATOM     17  O   GLU A   8      17.992  12.096 -15.040  0.00  0.00    -0.286 OA
ENDBRANCH  15  16
BRANCH  15  18
ATOM     18  CB  GLU A   8      20.030  14.077 -13.125  0.00  0.00    +0.039 C 
BRANCH  18  19
ATOM     19  CG  GLU A   8      20.400  14.434 -11.729  0.00  0.00    +0.116 C 
BRANCH  19  20
ATOM     20  CD  GLU A   8      19.971  15.827 -11.326  0.00  0.00    +0.365 C 
ATOM     21  OE2 GLU A   8      20.423  16.261 -10.247  0.00  0.00    -0.246 OA
ATOM     22  OE1 GLU A   8      19.193  16.487 -12.059  0.00  0.00    -0.246 OA
ENDBRANCH  19  20
ENDBRANCH  18  19
ENDBRANCH  15  18
ENDBRANCH  12  15
ENDBRANCH  10  11
BRANCH  10  23
ATOM     23  CB  ARG A   7      16.828   9.669 -12.595  0.00  0.00    +0.033 C 
BRANCH  23  24
ATOM     24  CG  ARG A   7      16.804   8.337 -11.868  0.00  0.00    +0.045 C 
BRANCH  24  25
ATOM     25  CD  ARG A   7      16.781   7.139 -12.805  0.00  0.00    +0.174 C 
BRANCH  25  26
ATOM     26  NE  ARG A   7      16.675   5.902 -12.005  0.00  0.00    -0.265 N 
ATOM     27  CZ  ARG A   7      17.708   5.325 -11.391  0.00  0.00    +0.342 C 
ATOM     28  NH2 ARG A   7      17.537   4.207 -10.661  0.00  0.00    -0.292 N 
ATOM     29 HH21 ARG A   7      18.351   3.766 -10.187  0.00  0.00    +0.255 HD
ATOM     30 HH22 ARG A   7      16.591   3.784 -10.571  0.00  0.00    +0.255 HD
ATOM     31  NH1 ARG A   7      18.927   5.868 -11.495  0.00  0.00    -0.292 N 
ATOM     32 HH11 ARG A   7      19.737   5.423 -11.018  0.00  0.00    +0.255 HD
ATOM     33 HH12 ARG A   7      19.064   6.735 -12.052  0.00  0.00    +0.255 HD
ATOM     34  HE  ARG A   7      15.740   5.455 -11.916  0.00  0.00    +0.259 HD
ENDBRANCH  25  26
ENDBRANCH  24  25
ENDBRANCH  23  24
ENDBRANCH  10  23
ENDBRANCH   8  10
ENDBRANCH   5   6
BRANCH   5  35
ATOM     35  CB  VAL A   6      13.134  11.790  -8.612  0.00  0.00    +0.027 C 
ATOM     36  CG2 VAL A   6      11.721  11.524  -8.134  0.00  0.00    +0.002 C 
ATOM     37  CG1 VAL A   6      13.145  12.949  -9.636  0.00  0.00    +0.002 C 
ENDBRANCH   5  35
ENDBRANCH   2   5
BRANCH   1  38
ATOM     38  CA  THR A   5      13.534   7.036  -7.643  0.00  0.00    +0.176 C 
BRANCH  38  41
ATOM     39  C   PRO A   4      11.131   6.491  -7.527  0.00  0.00    +0.241 C 
ATOM     40  O   PRO A   4      10.796   7.661  -7.261  0.00  0.00    -0.273 OA
ATOM     41  N   THR A   5      12.391   6.099  -7.700  0.00  0.00    -0.295 N 
ATOM     42  H   THR A   5      12.580   5.093  -7.883  0.00  0.00    +0.150 HD
BRANCH  39  49
ATOM     43  C   VAL A   3       9.121   5.776  -5.384  0.00  0.00    +0.244 C 
ATOM     44  O   VAL A   3      10.246   5.733  -4.856  0.00  0.00    -0.273 OA
ATOM     45  N   PRO A   4       8.933   5.648  -6.729  0.00  0.00    -0.272 N 
ATOM     46  CD  PRO A   4       7.671   5.694  -7.497  0.00  0.00    +0.094 C 
ATOM     47  CG  PRO A   4       8.017   4.927  -8.741  0.00  0.00    +0.024 C 
ATOM     48  CB  PRO A   4       9.440   5.353  -9.010  0.00  0.00    +0.031 C 
ATOM     49  CA  PRO A   4      10.079   5.393  -7.616  0.00  0.00    +0.152 C 
BRANCH  43  50
ATOM     50  CA  VAL A   3       7.879   5.942  -4.495  0.00  0.00    +0.149 C 
BRANCH  50  52
ATOM     51  C   GLY A   2       7.174   4.048  -3.146  0.00  0.00    +0.243 C 
ATOM     52  N   VAL A   3       8.033   5.042  -3.359  0.00  0.00    -0.297 N 
ATOM     53  H   VAL A   3       8.828   5.179  -2.703  0.00  0.00    +0.150 HD
ATOM     54  O   GLY A   2       6.248   3.823  -3.895  0.00  0.00    -0.273 OA
BRANCH  51  55
ATOM     55  CA  GLY A   2       7.366   3.203  -1.906  0.00  0.00    +0.176 C 
BRANCH  55  58
ATOM     56  C   VAL A   1       5.538   3.818  -0.408  0.00  0.00    +0.238 C 
ATOM     57  O   VAL A   1       6.136   4.812   0.004  0.00  0.00    -0.274 OA
ATOM     58  N   GLY A   2       6.058   2.966  -1.293  0.00  0.00    -0.296 N 
ATOM     59  H   GLY A   2       5.522   2.114  -1.553  0.00  0.00    +0.150 HD
BRANCH  56  60
ATOM     60  CA  VAL A   1       4.142   3.517   0.097  0.00  0.00    +0.145 C 
BRANCH  60  61
ATOM     61  CB  VAL A   1       3.246   4.726  -0.278  0.00  0.00    +0.025 C 
ATOM     62  CG2 VAL A   1       1.812   4.565   0.239  0.00  0.00    +0.002 C 
ATOM     63  CG1 VAL A   1       3.227   4.922  -1.804  0.00  0.00    +0.002 C 
ENDBRANCH  60  61
BRANCH  60  64
ATOM     64  N   VAL A   1       4.183   3.264   1.545  0.00  0.00    -0.238 NA
ATOM     65  H   VAL A   1       4.454   4.044   2.177  0.00  0.00    +0.142 HD
ENDBRANCH  60  64
ENDBRANCH  56  60
ENDBRANCH  55  58
ENDBRANCH  51  55
ENDBRANCH  50  52
BRANCH  50  66
ATOM     66  CB  VAL A   3       7.722   7.394  -4.002  0.00  0.00    +0.027 C 
ATOM     67  CG2 VAL A   3       6.556   7.495  -3.068  0.00  0.00    +0.002 C 
ATOM     68  CG1 VAL A   3       7.534   8.383  -5.170  0.00  0.00    +0.002 C 
ENDBRANCH  50  66
ENDBRANCH  43  50
ENDBRANCH  39  49
ENDBRANCH  38  41
BRANCH  38  69
ATOM     69  CB  THR A   5      14.837   6.258  -7.826  0.00  0.00    +0.137 C 
ATOM     70  CG2 THR A   5      16.066   7.215  -7.875  0.00  0.00    +0.034 C 
BRANCH  69  71
ATOM     71  OG1 THR A   5      14.983   5.354  -6.729  0.00  0.00    -0.382 OA
ATOM     72  HG1 THR A   5      15.824   4.842  -6.834  0.00  0.00    +0.210 HD
ENDBRANCH  69  71
ENDBRANCH  38  69
ENDBRANCH   1  38
TORSDOF 27
REMARK  Name = ../refined-set-2016/3coz/3coz_pocket.pdb
REMARK  228 active torsions:
REMARK  status: ('A' for Active; 'I' for Inactive)
REMARK    1  A    between atoms: _1  and  _3
REMARK    2  A    between atoms: _3  and  _4
REMARK    3  A    between atoms: _3  and  _6
REMARK    4  A    between atoms: _6  and  _7
REMARK    5  A    between atoms: _10  and  _12
REMARK    6  A    between atoms: _12  and  _13
REMARK    7  A    between atoms: _12  and  _15
REMARK    8  A    between atoms: _19  and  _20
REMARK    9  A    between atoms: _25  and  _27
REMARK   10  A    between atoms: _27  and  _28
REMARK   11  A    between atoms: _27  and  _30
REMARK   12  A    between atoms: _30  and  _31
REMARK   13  A    between atoms: _34  and  _36
REMARK   14  A    between atoms: _36  and  _37
REMARK   15  A    between atoms: _36  and  _39
REMARK   16  A    between atoms: _39  and  _40
REMARK   17  A    between atoms: _40  and  _41
REMARK   18  A    between atoms: _43  and  _45
REMARK   19  A    between atoms: _45  and  _46
REMARK   20  A    between atoms: _48  and  _50
REMARK   21  A    between atoms: _50  and  _51
REMARK   22  A    between atoms: _54  and  _56
REMARK   23  A    between atoms: _56  and  _57
REMARK   24  A    between atoms: _56  and  _59
REMARK   25  A    between atoms: _59  and  _60
REMARK   26  A    between atoms: _63  and  _65
REMARK   27  A    between atoms: _65  and  _66
REMARK   28  A    between atoms: _65  and  _68
REMARK   29  A    between atoms: _68  and  _69
REMARK   30  A    between atoms: _74  and  _76
REMARK   31  A    between atoms: _76  and  _77
REMARK   32  A    between atoms: _76  and  _79
REMARK   33  A    between atoms: _79  and  _80
REMARK   34  A    between atoms: _80  and  _81
REMARK   35  A    between atoms: _84  and  _86
REMARK   36  A    between atoms: _86  and  _87
REMARK   37  A    between atoms: _89  and  _91
REMARK   38  A    between atoms: _91  and  _92
REMARK   39  A    between atoms: _91  and  _94
REMARK   40  A    between atoms: _94  and  _95
REMARK   41  A    between atoms: _100  and  _102
REMARK   42  A    between atoms: _102  and  _103
REMARK   43  A    between atoms: _102  and  _105
REMARK   44  A    between atoms: _105  and  _106
REMARK   45  A    between atoms: _109  and  _111
REMARK   46  A    between atoms: _111  and  _112
REMARK   47  A    between atoms: _115  and  _117
REMARK   48  A    between atoms: _117  and  _118
REMARK   49  A    between atoms: _117  and  _120
REMARK   50  A    between atoms: _120  and  _121
REMARK   51  A    between atoms: _124  and  _126
REMARK   52  A    between atoms: _126  and  _127
REMARK   53  A    between atoms: _126  and  _129
REMARK   54  A    between atoms: _132  and  _134
REMARK   55  A    between atoms: _134  and  _135
REMARK   56  A    between atoms: _134  and  _137
REMARK   57  A    between atoms: _140  and  _142
REMARK   58  A    between atoms: _142  and  _143
REMARK   59  A    between atoms: _142  and  _145
REMARK   60  A    between atoms: _145  and  _146
REMARK   61  A    between atoms: _148  and  _150
REMARK   62  A    between atoms: _150  and  _151
REMARK   63  A    between atoms: _150  and  _153
REMARK   64  A    between atoms: _153  and  _154
REMARK   65  A    between atoms: _157  and  _159
REMARK   66  A    between atoms: _159  and  _160
REMARK   67  A    between atoms: _159  and  _162
REMARK   68  A    between atoms: _162  and  _163
REMARK   69  A    between atoms: _169  and  _171
REMARK   70  A    between atoms: _171  and  _172
REMARK   71  A    between atoms: _171  and  _174
REMARK   72  A    between atoms: _177  and  _179
REMARK   73  A    between atoms: _179  and  _180
REMARK   74  A    between atoms: _179  and  _182
REMARK   75  A    between atoms: _182  and  _183
REMARK   76  A    between atoms: _188  and  _190
REMARK   77  A    between atoms: _190  and  _191
REMARK   78  A    between atoms: _190  and  _193
REMARK   79  A    between atoms: _193  and  _194
REMARK   80  A    between atoms: _194  and  _195
REMARK   81  A    between atoms: _200  and  _202
REMARK   82  A    between atoms: _202  and  _203
REMARK   83  A    between atoms: _202  and  _205
REMARK   84  A    between atoms: _205  and  _206
REMARK   85  A    between atoms: _212  and  _214
REMARK   86  A    between atoms: _214  and  _215
REMARK   87  A    between atoms: _214  and  _217
REMARK   88  A    between atoms: _217  and  _218
REMARK   89  A    between atoms: _223  and  _224
REMARK   90  A    between atoms: _227  and  _228
REMARK   91  A    between atoms: _233  and  _235
REMARK   92  A    between atoms: _235  and  _236
REMARK   93  A    between atoms: _235  and  _238
REMARK   94  A    between atoms: _238  and  _239
REMARK   95  A    between atoms: _244  and  _246
REMARK   96  A    between atoms: _246  and  _247
REMARK   97  A    between atoms: _246  and  _249
REMARK   98  A    between atoms: _249  and  _250
REMARK   99  A    between atoms: _256  and  _258
REMARK  100  A    between atoms: _258  and  _259
REMARK  101  A    between atoms: _261  and  _263
REMARK  102  A    between atoms: _263  and  _264
REMARK  103  A    between atoms: _263  and  _266
REMARK  104  A    between atoms: _269  and  _271
REMARK  105  A    between atoms: _271  and  _272
REMARK  106  A    between atoms: _271  and  _274
REMARK  107  A    between atoms: _274  and  _275
REMARK  108  A    between atoms: _278  and  _280
REMARK  109  A    between atoms: _280  and  _281
REMARK  110  A    between atoms: _280  and  _283
REMARK  111  A    between atoms: _286  and  _288
REMARK  112  A    between atoms: _288  and  _289
REMARK  113  A    between atoms: _288  and  _291
REMARK  114  A    between atoms: _294  and  _296
REMARK  115  A    between atoms: _296  and  _297
REMARK  116  A    between atoms: _296  and  _299
REMARK  117  A    between atoms: _299  and  _300
REMARK  118  A    between atoms: _303  and  _305
REMARK  119  A    between atoms: _305  and  _306
REMARK  120  A    between atoms: _305  and  _308
REMARK  121  A    between atoms: _311  and  _313
REMARK  122  A    between atoms: _313  and  _314
REMARK  123  A    between atoms: _313  and  _316
REMARK  124  A    between atoms: _316  and  _317
REMARK  125  A    between atoms: _323  and  _325
REMARK  126  A    between atoms: _325  and  _326
REMARK  127  A    between atoms: _325  and  _328
REMARK  128  A    between atoms: _328  and  _329
REMARK  129  A    between atoms: _335  and  _337
REMARK  130  A    between atoms: _337  and  _338
REMARK  131  A    between atoms: _340  and  _342
REMARK  132  A    between atoms: _342  and  _343
REMARK  133  A    between atoms: _342  and  _345
REMARK  134  A    between atoms: _345  and  _346
REMARK  135  A    between atoms: _346  and  _347
REMARK  136  A    between atoms: _350  and  _352
REMARK  137  A    between atoms: _352  and  _353
REMARK  138  A    between atoms: _352  and  _355
REMARK  139  A    between atoms: _355  and  _356
REMARK  140  A    between atoms: _356  and  _357
REMARK  141  A    between atoms: _357  and  _358
REMARK  142  A    between atoms: _358  and  _359
REMARK  143  A    between atoms: _363  and  _365
REMARK  144  A    between atoms: _365  and  _366
REMARK  145  A    between atoms: _365  and  _368
REMARK  146  A    between atoms: _368  and  _369
REMARK  147  A    between atoms: _372  and  _374
REMARK  148  A    between atoms: _374  and  _375
REMARK  149  A    between atoms: _374  and  _377
REMARK  150  A    between atoms: _377  and  _378
REMARK  151  A    between atoms: _383  and  _384
REMARK  152  A    between atoms: _386  and  _388
REMARK  153  A    between atoms: _388  and  _389
REMARK  154  A    between atoms: _388  and  _391
REMARK  155  A    between atoms: _391  and  _392
REMARK  156  A    between atoms: _392  and  _393
REMARK  157  A    between atoms: _398  and  _400
REMARK  158  A    between atoms: _400  and  _401
REMARK  159  A    between atoms: _400  and  _403
REMARK  160  A    between atoms: _403  and  _404
REMARK  161  A    between atoms: _407  and  _409
REMARK  162  A    between atoms: _409  and  _410
REMARK  163  A    between atoms: _409  and  _412
REMARK  164  A    between atoms: _412  and  _413
REMARK  165  A    between atoms: _416  and  _418
REMARK  166  A    between atoms: _418  and  _419
REMARK  167  A    between atoms: _418  and  _421
REMARK  168  A    between atoms: _424  and  _426
REMARK  169  A    between atoms: _426  and  _427
REMARK  170  A    between atoms: _429  and  _431
REMARK  171  A    between atoms: _431  and  _432
REMARK  172  A    between atoms: _431  and  _434
REMARK  173  A    between atoms: _438  and  _439
REMARK  174  A    between atoms: _444  and  _446
REMARK  175  A    between atoms: _446  and  _447
REMARK  176  A    between atoms: _446  and  _449
REMARK  177  A    between atoms: _449  and  _450
REMARK  178  A    between atoms: _453  and  _455
REMARK  179  A    between atoms: _455  and  _456
REMARK  180  A    between atoms: _455  and  _458
REMARK  181  A    between atoms: _461  and  _463
REMARK  182  A    between atoms: _463  and  _464
REMARK  183  A    between atoms: _463  and  _466
REMARK  184  A    between atoms: _466  and  _467
REMARK  185  A    between atoms: _467  and  _468
REMARK  186  A    between atoms: _468  and  _469
REMARK  187  A    between atoms: _478  and  _480
REMARK  188  A    between atoms: _480  and  _481
REMARK  189  A    between atoms: _480  and  _483
REMARK  190  A    between atoms: _483  and  _484
REMARK  191  A    between atoms: _484  and  _485
REMARK  192  A    between atoms: _488  and  _490
REMARK  193  A    between atoms: _490  and  _491
REMARK  194  A    between atoms: _490  and  _493
REMARK  195  A    between atoms: _493  and  _494
REMARK  196  A    between atoms: _497  and  _499
REMARK  197  A    between atoms: _499  and  _500
REMARK  198  A    between atoms: _503  and  _505
REMARK  199  A    between atoms: _505  and  _506
REMARK  200  A    between atoms: _505  and  _508
REMARK  201  A    between atoms: _508  and  _509
REMARK  202  A    between atoms: _509  and  _510
REMARK  203  A    between atoms: _512  and  _514
REMARK  204  A    between atoms: _514  and  _515
REMARK  205  A    between atoms: _514  and  _517
REMARK  206  A    between atoms: _517  and  _518
REMARK  207  A    between atoms: _520  and  _522
REMARK  208  A    between atoms: _522  and  _523
REMARK  209  A    between atoms: _522  and  _525
REMARK  210  A    between atoms: _525  and  _526
REMARK  211  A    between atoms: _528  and  _530
REMARK  212  A    between atoms: _530  and  _531
REMARK  213  A    between atoms: _530  and  _533
REMARK  214  A    between atoms: _533  and  _534
REMARK  215  A    between atoms: _534  and  _535
REMARK  216  A    between atoms: _535  and  _536
REMARK  217  A    between atoms: _545  and  _547
REMARK  218  A    between atoms: _547  and  _548
REMARK  219  A    between atoms: _547  and  _550
REMARK  220  A    between atoms: _550  and  _551
REMARK  221  A    between atoms: _556  and  _558
REMARK  222  A    between atoms: _558  and  _559
REMARK  223  A    between atoms: _558  and  _561
REMARK  224  A    between atoms: _561  and  _562
REMARK  225  A    between atoms: _565  and  _567
REMARK  226  A    between atoms: _567  and  _568
REMARK  227  A    between atoms: _567  and  _570
REMARK  228  A    between atoms: _570  and  _571
REMARK                            x       y       z     vdW  Elec       q    Type
REMARK                         _______ _______ _______ _____ _____    ______ ____
ROOT
ATOM      1  C   SER A   4      21.182  14.267  -3.463  0.00  0.00    +0.243 C 
ATOM      2  N   SER A   5      21.025  14.584  -2.176  0.00  0.00    -0.295 N 
ATOM      3  H   SER A   5      20.388  14.005  -1.592  0.00  0.00    +0.150 HD
ATOM      4  O   SER A   4      21.792  14.963  -4.293  0.00  0.00    -0.273 OA
ENDROOT
BRANCH   2   5
ATOM      5  CA  SER A   5      21.715  15.715  -1.556  0.00  0.00    +0.178 C 
BRANCH   5   6
ATOM      6  C   SER A   5      23.244  15.538  -1.650  0.00  0.00    +0.243 C 
ATOM      7  N   ARG A   6      23.722  14.300  -1.495  0.00  0.00    -0.297 N 
ATOM      8  H   ARG A   6      23.067  13.531  -1.247  0.00  0.00    +0.150 HD
ATOM      9  O   SER A   5      23.967  16.503  -1.917  0.00  0.00    -0.273 OA
BRANCH   7  10
ATOM     10  CA  ARG A   6      25.152  13.996  -1.666  0.00  0.00    +0.149 C 
BRANCH  10  11
ATOM     11  C   ARG A   6      25.751  14.345  -3.035  0.00  0.00    +0.241 C 
ATOM     12  O   ARG A   6      26.972  14.493  -3.139  0.00  0.00    -0.273 OA
ATOM     13  N   ASN A   7      24.915  14.484  -4.067  0.00  0.00    -0.298 N 
ATOM     14  H   ASN A   7      23.893  14.362  -3.915  0.00  0.00    +0.150 HD
BRANCH  13  15
ATOM     15  CA  ASN A   7      25.411  14.807  -5.421  0.00  0.00    +0.146 C 
BRANCH  15  16
ATOM     16  C   ASN A   7      26.126  16.154  -5.512  0.00  0.00    +0.227 C 
ATOM     17  O   ASN A   7      26.825  16.423  -6.498  0.00  0.00    -0.286 OA
ENDBRANCH  15  16
BRANCH  15  18
ATOM     18  CB  ASN A   7      24.288  14.790  -6.473  0.00  0.00    +0.112 C 
BRANCH  18  19
ATOM     19  CG  ASN A   7      23.723  13.397  -6.718  0.00  0.00    +0.222 C 
ATOM     20  OD1 ASN A   7      24.304  12.399  -6.314  0.00  0.00    -0.275 OA
ATOM     21  ND2 ASN A   7      22.585  13.333  -7.384  0.00  0.00    -0.329 N 
ATOM     22 HD21 ASN A   7      22.150  12.409  -7.583  0.00  0.00    +0.145 HD
ATOM     23 HD22 ASN A   7      22.123  14.206  -7.710  0.00  0.00    +0.145 HD
ENDBRANCH  18  19
ENDBRANCH  15  18
ENDBRANCH  13  15
ENDBRANCH  10  11
BRANCH  10  24
ATOM     24  CB  ARG A   6      25.463  12.540  -1.315  0.00  0.00    +0.033 C 
BRANCH  24  25
ATOM     25  CG  ARG A   6      25.750  12.340   0.160  0.00  0.00    +0.045 C 
BRANCH  25  26
ATOM     26  CD  ARG A   6      25.707  10.878   0.554  0.00  0.00    +0.174 C 
BRANCH  26  27
ATOM     27  NE  ARG A   6      26.263  10.685   1.893  0.00  0.00    -0.265 N 
ATOM     28  HE  ARG A   6      26.472  11.535   2.454  0.00  0.00    +0.259 HD
ATOM     29  CZ  ARG A   6      26.521   9.502   2.447  0.00  0.00    +0.342 C 
ATOM     30  NH2 ARG A   6      27.035   9.444   3.673  0.00  0.00    -0.292 N 
ATOM     31 HH21 ARG A   6      27.234  10.321   4.195  0.00  0.00    +0.255 HD
ATOM     32 HH22 ARG A   6      27.238   8.522   4.109  0.00  0.00    +0.255 HD
ATOM     33  NH1 ARG A   6      26.274   8.376   1.781  0.00  0.00    -0.292 N 
ATOM     34 HH11 ARG A   6      26.478   7.456   2.221  0.00  0.00    +0.255 HD
ATOM     35 HH12 ARG A   6      25.877   8.416   0.821  0.00  0.00    +0.255 HD
ENDBRANCH  26  27
ENDBRANCH  25  26
ENDBRANCH  24  25
ENDBRANCH  10  24
ENDBRANCH   7  10
ENDBRANCH   5   6
BRANCH   5  36
ATOM     36  CB  SER A   5      21.241  15.933  -0.111  0.00  0.00    +0.166 C 
BRANCH  36  37
ATOM     37  OG  SER A   5      21.293  14.732   0.657  0.00  0.00    -0.380 OA
ATOM     38  H   SER A   5      20.710  14.049   0.240  0.00  0.00    +0.211 HD
ENDBRANCH  36  37
ENDBRANCH   5  36
ENDBRANCH   2   5
BRANCH   1  39
ATOM     39  CA  SER A   4      20.565  12.952  -3.880  0.00  0.00    +0.178 C 
BRANCH  39  42
ATOM     40  C   MET A   3      19.236  12.315  -5.806  0.00  0.00    +0.241 C 
ATOM     41  O   MET A   3      18.634  11.452  -5.165  0.00  0.00    -0.273 OA
ATOM     42  N   SER A   4      20.195  13.066  -5.280  0.00  0.00    -0.295 N 
ATOM     43  H   SER A   4      20.693  13.751  -5.883  0.00  0.00    +0.150 HD
BRANCH  40  44
ATOM     44  CA  MET A   3      18.925  12.560  -7.281  0.00  0.00    +0.149 C 
BRANCH  44  47
ATOM     45  C   ALA A   2      19.903  10.538  -8.168  0.00  0.00    +0.241 C 
ATOM     46  O   ALA A   2      21.005  10.828  -7.701  0.00  0.00    -0.273 OA
ATOM     47  N   MET A   3      18.828  11.298  -8.011  0.00  0.00    -0.297 N 
ATOM     48  H   MET A   3      17.915  10.996  -8.408  0.00  0.00    +0.150 HD
BRANCH  45  49
ATOM     49  CA  ALA A   2      19.719   9.251  -8.936  0.00  0.00    +0.149 C 
ATOM     50  CB  ALA A   2      19.879   8.098  -8.012  0.00  0.00    +0.031 C 
BRANCH  49  52
ATOM     51  C   LEU A   1      20.698  10.083 -11.027  0.00  0.00    +0.238 C 
ATOM     52  N   ALA A   2      20.698   9.187 -10.031  0.00  0.00    -0.297 N 
ATOM     53  H   ALA A   2      21.408   8.427 -10.032  0.00  0.00    +0.150 HD
ATOM     54  O   LEU A   1      19.863  10.987 -11.123  0.00  0.00    -0.274 OA
BRANCH  51  55
ATOM     55  CA  LEU A   1      21.831   9.977 -12.066  0.00  0.00    +0.145 C 
BRANCH  55  56
ATOM     56  N   LEU A   1      21.313   9.836 -13.428  0.00  0.00    -0.238 NA
ATOM     57  H   LEU A   1      21.656  10.481 -14.169  0.00  0.00    +0.142 HD
ENDBRANCH  55  56
BRANCH  55  58
ATOM     58  CB  LEU A   1      22.754  11.212 -11.952  0.00  0.00    +0.026 C 
BRANCH  58  59
ATOM     59  CG  LEU A   1      23.387  11.460 -10.569  0.00  0.00    +0.002 C 
ATOM     60  CD2 LEU A   1      24.211  10.273 -10.051  0.00  0.00    +0.000 C 
ATOM     61  CD1 LEU A   1      24.233  12.703 -10.540  0.00  0.00    +0.000 C 
ENDBRANCH  58  59
ENDBRANCH  55  58
ENDBRANCH  51  55
ENDBRANCH  49  52
ENDBRANCH  45  49
ENDBRANCH  44  47
BRANCH  44  62
ATOM     62  CB  MET A   3      17.640  13.357  -7.402  0.00  0.00    +0.041 C 
BRANCH  62  63
ATOM     63  CG  MET A   3      17.383  13.875  -8.776  0.00  0.00    +0.060 C 
BRANCH  63  64
ATOM     64  SD  MET A   3      16.276  15.285  -8.683  0.00  0.00    -0.139 S 
ATOM     65  CE  MET A   3      17.425  16.445  -7.932  0.00  0.00    +0.069 C 
ENDBRANCH  63  64
ENDBRANCH  62  63
ENDBRANCH  44  62
ENDBRANCH  40  44
ENDBRANCH  39  42
BRANCH  39  66
ATOM     66  CB  SER A   4      21.591  11.823  -3.659  0.00  0.00    +0.166 C 
BRANCH  66  67
ATOM     67  OG  SER A   4      22.191  11.918  -2.370  0.00  0.00    -0.380 OA
ATOM     68  H   SER A   4      22.844  11.182  -2.256  0.00  0.00    +0.211 HD
ENDBRANCH  66  67
ENDBRANCH  39  66
ENDBRANCH   1  39
TORSDOF 29
REMARK  Name = ../refined-set-2016/3coz/3coz_pocket.pdb
REMARK  228 active torsions:
REMARK  status: ('A' for Active; 'I' for Inactive)
REMARK    1  A    between atoms: _1  and  _3
REMARK    2  A    between atoms: _3  and  _4
REMARK    3  A    between atoms: _3  and  _6
REMARK    4  A    between atoms: _6  and  _7
REMARK    5  A    between atoms: _10  and  _12
REMARK    6  A    between atoms: _12  and  _13
REMARK    7  A    between atoms: _12  and  _15
REMARK    8  A    between atoms: _19  and  _20
REMARK    9  A    between atoms: _25  and  _27
REMARK   10  A    between atoms: _27  and  _28
REMARK   11  A    between atoms: _27  and  _30
REMARK   12  A    between atoms: _30  and  _31
REMARK   13  A    between atoms: _34  and  _36
REMARK   14  A    between atoms: _36  and  _37
REMARK   15  A    between atoms: _36  and  _39
REMARK   16  A    between atoms: _39  and  _40
REMARK   17  A    between atoms: _40  and  _41
REMARK   18  A    between atoms: _43  and  _45
REMARK   19  A    between atoms: _45  and  _46
REMARK   20  A    between atoms: _48  and  _50
REMARK   21  A    between atoms: _50  and  _51
REMARK   22  A    between atoms: _54  and  _56
REMARK   23  A    between atoms: _56  and  _57
REMARK   24  A    between atoms: _56  and  _59
REMARK   25  A    between atoms: _59  and  _60
REMARK   26  A    between atoms: _63  and  _65
REMARK   27  A    between atoms: _65  and  _66
REMARK   28  A    between atoms: _65  and  _68
REMARK   29  A    between atoms: _68  and  _69
REMARK   30  A    between atoms: _74  and  _76
REMARK   31  A    between atoms: _76  and  _77
REMARK   32  A    between atoms: _76  and  _79
REMARK   33  A    between atoms: _79  and  _80
REMARK   34  A    between atoms: _80  and  _81
REMARK   35  A    between atoms: _84  and  _86
REMARK   36  A    between atoms: _86  and  _87
REMARK   37  A    between atoms: _89  and  _91
REMARK   38  A    between atoms: _91  and  _92
REMARK   39  A    between atoms: _91  and  _94
REMARK   40  A    between atoms: _94  and  _95
REMARK   41  A    between atoms: _100  and  _102
REMARK   42  A    between atoms: _102  and  _103
REMARK   43  A    between atoms: _102  and  _105
REMARK   44  A    between atoms: _105  and  _106
REMARK   45  A    between atoms: _109  and  _111
REMARK   46  A    between atoms: _111  and  _112
REMARK   47  A    between atoms: _115  and  _117
REMARK   48  A    between atoms: _117  and  _118
REMARK   49  A    between atoms: _117  and  _120
REMARK   50  A    between atoms: _120  and  _121
REMARK   51  A    between atoms: _124  and  _126
REMARK   52  A    between atoms: _126  and  _127
REMARK   53  A    between atoms: _126  and  _129
REMARK   54  A    between atoms: _132  and  _134
REMARK   55  A    between atoms: _134  and  _135
REMARK   56  A    between atoms: _134  and  _137
REMARK   57  A    between atoms: _140  and  _142
REMARK   58  A    between atoms: _142  and  _143
REMARK   59  A    between atoms: _142  and  _145
REMARK   60  A    between atoms: _145  and  _146
REMARK   61  A    between atoms: _148  and  _150
REMARK   62  A    between atoms: _150  and  _151
REMARK   63  A    between atoms: _150  and  _153
REMARK   64  A    between atoms: _153  and  _154
REMARK   65  A    between atoms: _157  and  _159
REMARK   66  A    between atoms: _159  and  _160
REMARK   67  A    between atoms: _159  and  _162
REMARK   68  A    between atoms: _162  and  _163
REMARK   69  A    between atoms: _169  and  _171
REMARK   70  A    between atoms: _171  and  _172
REMARK   71  A    between atoms: _171  and  _174
REMARK   72  A    between atoms: _177  and  _179
REMARK   73  A    between atoms: _179  and  _180
REMARK   74  A    between atoms: _179  and  _182
REMARK   75  A    between atoms: _182  and  _183
REMARK   76  A    between atoms: _188  and  _190
REMARK   77  A    between atoms: _190  and  _191
REMARK   78  A    between atoms: _190  and  _193
REMARK   79  A    between atoms: _193  and  _194
REMARK   80  A    between atoms: _194  and  _195
REMARK   81  A    between atoms: _200  and  _202
REMARK   82  A    between atoms: _202  and  _203
REMARK   83  A    between atoms: _202  and  _205
REMARK   84  A    between atoms: _205  and  _206
REMARK   85  A    between atoms: _212  and  _214
REMARK   86  A    between atoms: _214  and  _215
REMARK   87  A    between atoms: _214  and  _217
REMARK   88  A    between atoms: _217  and  _218
REMARK   89  A    between atoms: _223  and  _224
REMARK   90  A    between atoms: _227  and  _228
REMARK   91  A    between atoms: _233  and  _235
REMARK   92  A    between atoms: _235  and  _236
REMARK   93  A    between atoms: _235  and  _238
REMARK   94  A    between atoms: _238  and  _239
REMARK   95  A    between atoms: _244  and  _246
REMARK   96  A    between atoms: _246  and  _247
REMARK   97  A    between atoms: _246  and  _249
REMARK   98  A    between atoms: _249  and  _250
REMARK   99  A    between atoms: _256  and  _258
REMARK  100  A    between atoms: _258  and  _259
REMARK  101  A    between atoms: _261  and  _263
REMARK  102  A    between atoms: _263  and  _264
REMARK  103  A    between atoms: _263  and  _266
REMARK  104  A    between atoms: _269  and  _271
REMARK  105  A    between atoms: _271  and  _272
REMARK  106  A    between atoms: _271  and  _274
REMARK  107  A    between atoms: _274  and  _275
REMARK  108  A    between atoms: _278  and  _280
REMARK  109  A    between atoms: _280  and  _281
REMARK  110  A    between atoms: _280  and  _283
REMARK  111  A    between atoms: _286  and  _288
REMARK  112  A    between atoms: _288  and  _289
REMARK  113  A    between atoms: _288  and  _291
REMARK  114  A    between atoms: _294  and  _296
REMARK  115  A    between atoms: _296  and  _297
REMARK  116  A    between atoms: _296  and  _299
REMARK  117  A    between atoms: _299  and  _300
REMARK  118  A    between atoms: _303  and  _305
REMARK  119  A    between atoms: _305  and  _306
REMARK  120  A    between atoms: _305  and  _308
REMARK  121  A    between atoms: _311  and  _313
REMARK  122  A    between atoms: _313  and  _314
REMARK  123  A    between atoms: _313  and  _316
REMARK  124  A    between atoms: _316  and  _317
REMARK  125  A    between atoms: _323  and  _325
REMARK  126  A    between atoms: _325  and  _326
REMARK  127  A    between atoms: _325  and  _328
REMARK  128  A    between atoms: _328  and  _329
REMARK  129  A    between atoms: _335  and  _337
REMARK  130  A    between atoms: _337  and  _338
REMARK  131  A    between atoms: _340  and  _342
REMARK  132  A    between atoms: _342  and  _343
REMARK  133  A    between atoms: _342  and  _345
REMARK  134  A    between atoms: _345  and  _346
REMARK  135  A    between atoms: _346  and  _347
REMARK  136  A    between atoms: _350  and  _352
REMARK  137  A    between atoms: _352  and  _353
REMARK  138  A    between atoms: _352  and  _355
REMARK  139  A    between atoms: _355  and  _356
REMARK  140  A    between atoms: _356  and  _357
REMARK  141  A    between atoms: _357  and  _358
REMARK  142  A    between atoms: _358  and  _359
REMARK  143  A    between atoms: _363  and  _365
REMARK  144  A    between atoms: _365  and  _366
REMARK  145  A    between atoms: _365  and  _368
REMARK  146  A    between atoms: _368  and  _369
REMARK  147  A    between atoms: _372  and  _374
REMARK  148  A    between atoms: _374  and  _375
REMARK  149  A    between atoms: _374  and  _377
REMARK  150  A    between atoms: _377  and  _378
REMARK  151  A    between atoms: _383  and  _384
REMARK  152  A    between atoms: _386  and  _388
REMARK  153  A    between atoms: _388  and  _389
REMARK  154  A    between atoms: _388  and  _391
REMARK  155  A    between atoms: _391  and  _392
REMARK  156  A    between atoms: _392  and  _393
REMARK  157  A    between atoms: _398  and  _400
REMARK  158  A    between atoms: _400  and  _401
REMARK  159  A    between atoms: _400  and  _403
REMARK  160  A    between atoms: _403  and  _404
REMARK  161  A    between atoms: _407  and  _409
REMARK  162  A    between atoms: _409  and  _410
REMARK  163  A    between atoms: _409  and  _412
REMARK  164  A    between atoms: _412  and  _413
REMARK  165  A    between atoms: _416  and  _418
REMARK  166  A    between atoms: _418  and  _419
REMARK  167  A    between atoms: _418  and  _421
REMARK  168  A    between atoms: _424  and  _426
REMARK  169  A    between atoms: _426  and  _427
REMARK  170  A    between atoms: _429  and  _431
REMARK  171  A    between atoms: _431  and  _432
REMARK  172  A    between atoms: _431  and  _434
REMARK  173  A    between atoms: _438  and  _439
REMARK  174  A    between atoms: _444  and  _446
REMARK  175  A    between atoms: _446  and  _447
REMARK  176  A    between atoms: _446  and  _449
REMARK  177  A    between atoms: _449  and  _450
REMARK  178  A    between atoms: _453  and  _455
REMARK  179  A    between atoms: _455  and  _456
REMARK  180  A    between atoms: _455  and  _458
REMARK  181  A    between atoms: _461  and  _463
REMARK  182  A    between atoms: _463  and  _464
REMARK  183  A    between atoms: _463  and  _466
REMARK  184  A    between atoms: _466  and  _467
REMARK  185  A    between atoms: _467  and  _468
REMARK  186  A    between atoms: _468  and  _469
REMARK  187  A    between atoms: _478  and  _480
REMARK  188  A    between atoms: _480  and  _481
REMARK  189  A    between atoms: _480  and  _483
REMARK  190  A    between atoms: _483  and  _484
REMARK  191  A    between atoms: _484  and  _485
REMARK  192  A    between atoms: _488  and  _490
REMARK  193  A    between atoms: _490  and  _491
REMARK  194  A    between atoms: _490  and  _493
REMARK  195  A    between atoms: _493  and  _494
REMARK  196  A    between atoms: _497  and  _499
REMARK  197  A    between atoms: _499  and  _500
REMARK  198  A    between atoms: _503  and  _505
REMARK  199  A    between atoms: _505  and  _506
REMARK  200  A    between atoms: _505  and  _508
REMARK  201  A    between atoms: _508  and  _509
REMARK  202  A    between atoms: _509  and  _510
REMARK  203  A    between atoms: _512  and  _514
REMARK  204  A    between atoms: _514  and  _515
REMARK  205  A    between atoms: _514  and  _517
REMARK  206  A    between atoms: _517  and  _518
REMARK  207  A    between atoms: _520  and  _522
REMARK  208  A    between atoms: _522  and  _523
REMARK  209  A    between atoms: _522  and  _525
REMARK  210  A    between atoms: _525  and  _526
REMARK  211  A    between atoms: _528  and  _530
REMARK  212  A    between atoms: _530  and  _531
REMARK  213  A    between atoms: _530  and  _533
REMARK  214  A    between atoms: _533  and  _534
REMARK  215  A    between atoms: _534  and  _535
REMARK  216  A    between atoms: _535  and  _536
REMARK  217  A    between atoms: _545  and  _547
REMARK  218  A    between atoms: _547  and  _548
REMARK  219  A    between atoms: _547  and  _550
REMARK  220  A    between atoms: _550  and  _551
REMARK  221  A    between atoms: _556  and  _558
REMARK  222  A    between atoms: _558  and  _559
REMARK  223  A    between atoms: _558  and  _561
REMARK  224  A    between atoms: _561  and  _562
REMARK  225  A    between atoms: _565  and  _567
REMARK  226  A    between atoms: _567  and  _568
REMARK  227  A    between atoms: _567  and  _570
REMARK  228  A    between atoms: _570  and  _571
REMARK                            x       y       z     vdW  Elec       q    Type
REMARK                         _______ _______ _______ _____ _____    ______ ____
ROOT
ATOM      1  CA  LEU A   1      23.855   4.597  -3.961  0.00  0.00    +0.133 C 
ENDROOT
BRANCH   1   2
ATOM      2  N   LEU A   1      24.658   5.815  -4.005  0.00  0.00    -0.239 NA
ATOM      3  H   LEU A   1      24.162   6.728  -4.043  0.00  0.00    +0.142 HD
ENDBRANCH   1   2
BRANCH   1   4
ATOM      4  C   LEU A   1      22.912   4.625  -5.143  0.00  0.00    +0.224 C 
ATOM      5  O   LEU A   1      22.420   5.691  -5.518  0.00  0.00    -0.287 OA
ENDBRANCH   1   4
BRANCH   1   6
ATOM      6  CB  LEU A   1      22.978   4.581  -2.704  0.00  0.00    +0.025 C 
BRANCH   6   7
ATOM      7  CG  LEU A   1      23.512   4.536  -1.283  0.00  0.00    +0.002 C 
ATOM      8  CD2 LEU A   1      22.386   4.052  -0.387  0.00  0.00    +0.000 C 
ATOM      9  CD1 LEU A   1      24.695   3.617  -1.169  0.00  0.00    +0.000 C 
ENDBRANCH   6   7
ENDBRANCH   1   6
TORSDOF 4
REMARK  Name = ../refined-set-2016/3coz/3coz_pocket.pdb
REMARK  228 active torsions:
REMARK  status: ('A' for Active; 'I' for Inactive)
REMARK    1  A    between atoms: _1  and  _3
REMARK    2  A    between atoms: _3  and  _4
REMARK    3  A    between atoms: _3  and  _6
REMARK    4  A    between atoms: _6  and  _7
REMARK    5  A    between atoms: _10  and  _12
REMARK    6  A    between atoms: _12  and  _13
REMARK    7  A    between atoms: _12  and  _15
REMARK    8  A    between atoms: _19  and  _20
REMARK    9  A    between atoms: _25  and  _27
REMARK   10  A    between atoms: _27  and  _28
REMARK   11  A    between atoms: _27  and  _30
REMARK   12  A    between atoms: _30  and  _31
REMARK   13  A    between atoms: _34  and  _36
REMARK   14  A    between atoms: _36  and  _37
REMARK   15  A    between atoms: _36  and  _39
REMARK   16  A    between atoms: _39  and  _40
REMARK   17  A    between atoms: _40  and  _41
REMARK   18  A    between atoms: _43  and  _45
REMARK   19  A    between atoms: _45  and  _46
REMARK   20  A    between atoms: _48  and  _50
REMARK   21  A    between atoms: _50  and  _51
REMARK   22  A    between atoms: _54  and  _56
REMARK   23  A    between atoms: _56  and  _57
REMARK   24  A    between atoms: _56  and  _59
REMARK   25  A    between atoms: _59  and  _60
REMARK   26  A    between atoms: _63  and  _65
REMARK   27  A    between atoms: _65  and  _66
REMARK   28  A    between atoms: _65  and  _68
REMARK   29  A    between atoms: _68  and  _69
REMARK   30  A    between atoms: _74  and  _76
REMARK   31  A    between atoms: _76  and  _77
REMARK   32  A    between atoms: _76  and  _79
REMARK   33  A    between atoms: _79  and  _80
REMARK   34  A    between atoms: _80  and  _81
REMARK   35  A    between atoms: _84  and  _86
REMARK   36  A    between atoms: _86  and  _87
REMARK   37  A    between atoms: _89  and  _91
REMARK   38  A    between atoms: _91  and  _92
REMARK   39  A    between atoms: _91  and  _94
REMARK   40  A    between atoms: _94  and  _95
REMARK   41  A    between atoms: _100  and  _102
REMARK   42  A    between atoms: _102  and  _103
REMARK   43  A    between atoms: _102  and  _105
REMARK   44  A    between atoms: _105  and  _106
REMARK   45  A    between atoms: _109  and  _111
REMARK   46  A    between atoms: _111  and  _112
REMARK   47  A    between atoms: _115  and  _117
REMARK   48  A    between atoms: _117  and  _118
REMARK   49  A    between atoms: _117  and  _120
REMARK   50  A    between atoms: _120  and  _121
REMARK   51  A    between atoms: _124  and  _126
REMARK   52  A    between atoms: _126  and  _127
REMARK   53  A    between atoms: _126  and  _129
REMARK   54  A    between atoms: _132  and  _134
REMARK   55  A    between atoms: _134  and  _135
REMARK   56  A    between atoms: _134  and  _137
REMARK   57  A    between atoms: _140  and  _142
REMARK   58  A    between atoms: _142  and  _143
REMARK   59  A    between atoms: _142  and  _145
REMARK   60  A    between atoms: _145  and  _146
REMARK   61  A    between atoms: _148  and  _150
REMARK   62  A    between atoms: _150  and  _151
REMARK   63  A    between atoms: _150  and  _153
REMARK   64  A    between atoms: _153  and  _154
REMARK   65  A    between atoms: _157  and  _159
REMARK   66  A    between atoms: _159  and  _160
REMARK   67  A    between atoms: _159  and  _162
REMARK   68  A    between atoms: _162  and  _163
REMARK   69  A    between atoms: _169  and  _171
REMARK   70  A    between atoms: _171  and  _172
REMARK   71  A    between atoms: _171  and  _174
REMARK   72  A    between atoms: _177  and  _179
REMARK   73  A    between atoms: _179  and  _180
REMARK   74  A    between atoms: _179  and  _182
REMARK   75  A    between atoms: _182  and  _183
REMARK   76  A    between atoms: _188  and  _190
REMARK   77  A    between atoms: _190  and  _191
REMARK   78  A    between atoms: _190  and  _193
REMARK   79  A    between atoms: _193  and  _194
REMARK   80  A    between atoms: _194  and  _195
REMARK   81  A    between atoms: _200  and  _202
REMARK   82  A    between atoms: _202  and  _203
REMARK   83  A    between atoms: _202  and  _205
REMARK   84  A    between atoms: _205  and  _206
REMARK   85  A    between atoms: _212  and  _214
REMARK   86  A    between atoms: _214  and  _215
REMARK   87  A    between atoms: _214  and  _217
REMARK   88  A    between atoms: _217  and  _218
REMARK   89  A    between atoms: _223  and  _224
REMARK   90  A    between atoms: _227  and  _228
REMARK   91  A    between atoms: _233  and  _235
REMARK   92  A    between atoms: _235  and  _236
REMARK   93  A    between atoms: _235  and  _238
REMARK   94  A    between atoms: _238  and  _239
REMARK   95  A    between atoms: _244  and  _246
REMARK   96  A    between atoms: _246  and  _247
REMARK   97  A    between atoms: _246  and  _249
REMARK   98  A    between atoms: _249  and  _250
REMARK   99  A    between atoms: _256  and  _258
REMARK  100  A    between atoms: _258  and  _259
REMARK  101  A    between atoms: _261  and  _263
REMARK  102  A    between atoms: _263  and  _264
REMARK  103  A    between atoms: _263  and  _266
REMARK  104  A    between atoms: _269  and  _271
REMARK  105  A    between atoms: _271  and  _272
REMARK  106  A    between atoms: _271  and  _274
REMARK  107  A    between atoms: _274  and  _275
REMARK  108  A    between atoms: _278  and  _280
REMARK  109  A    between atoms: _280  and  _281
REMARK  110  A    between atoms: _280  and  _283
REMARK  111  A    between atoms: _286  and  _288
REMARK  112  A    between atoms: _288  and  _289
REMARK  113  A    between atoms: _288  and  _291
REMARK  114  A    between atoms: _294  and  _296
REMARK  115  A    between atoms: _296  and  _297
REMARK  116  A    between atoms: _296  and  _299
REMARK  117  A    between atoms: _299  and  _300
REMARK  118  A    between atoms: _303  and  _305
REMARK  119  A    between atoms: _305  and  _306
REMARK  120  A    between atoms: _305  and  _308
REMARK  121  A    between atoms: _311  and  _313
REMARK  122  A    between atoms: _313  and  _314
REMARK  123  A    between atoms: _313  and  _316
REMARK  124  A    between atoms: _316  and  _317
REMARK  125  A    between atoms: _323  and  _325
REMARK  126  A    between atoms: _325  and  _326
REMARK  127  A    between atoms: _325  and  _328
REMARK  128  A    between atoms: _328  and  _329
REMARK  129  A    between atoms: _335  and  _337
REMARK  130  A    between atoms: _337  and  _338
REMARK  131  A    between atoms: _340  and  _342
REMARK  132  A    between atoms: _342  and  _343
REMARK  133  A    between atoms: _342  and  _345
REMARK  134  A    between atoms: _345  and  _346
REMARK  135  A    between atoms: _346  and  _347
REMARK  136  A    between atoms: _350  and  _352
REMARK  137  A    between atoms: _352  and  _353
REMARK  138  A    between atoms: _352  and  _355
REMARK  139  A    between atoms: _355  and  _356
REMARK  140  A    between atoms: _356  and  _357
REMARK  141  A    between atoms: _357  and  _358
REMARK  142  A    between atoms: _358  and  _359
REMARK  143  A    between atoms: _363  and  _365
REMARK  144  A    between atoms: _365  and  _366
REMARK  145  A    between atoms: _365  and  _368
REMARK  146  A    between atoms: _368  and  _369
REMARK  147  A    between atoms: _372  and  _374
REMARK  148  A    between atoms: _374  and  _375
REMARK  149  A    between atoms: _374  and  _377
REMARK  150  A    between atoms: _377  and  _378
REMARK  151  A    between atoms: _383  and  _384
REMARK  152  A    between atoms: _386  and  _388
REMARK  153  A    between atoms: _388  and  _389
REMARK  154  A    between atoms: _388  and  _391
REMARK  155  A    between atoms: _391  and  _392
REMARK  156  A    between atoms: _392  and  _393
REMARK  157  A    between atoms: _398  and  _400
REMARK  158  A    between atoms: _400  and  _401
REMARK  159  A    between atoms: _400  and  _403
REMARK  160  A    between atoms: _403  and  _404
REMARK  161  A    between atoms: _407  and  _409
REMARK  162  A    between atoms: _409  and  _410
REMARK  163  A    between atoms: _409  and  _412
REMARK  164  A    between atoms: _412  and  _413
REMARK  165  A    between atoms: _416  and  _418
REMARK  166  A    between atoms: _418  and  _419
REMARK  167  A    between atoms: _418  and  _421
REMARK  168  A    between atoms: _424  and  _426
REMARK  169  A    between atoms: _426  and  _427
REMARK  170  A    between atoms: _429  and  _431
REMARK  171  A    between atoms: _431  and  _432
REMARK  172  A    between atoms: _431  and  _434
REMARK  173  A    between atoms: _438  and  _439
REMARK  174  A    between atoms: _444  and  _446
REMARK  175  A    between atoms: _446  and  _447
REMARK  176  A    between atoms: _446  and  _449
REMARK  177  A    between atoms: _449  and  _450
REMARK  178  A    between atoms: _453  and  _455
REMARK  179  A    between atoms: _455  and  _456
REMARK  180  A    between atoms: _455  and  _458
REMARK  181  A    between atoms: _461  and  _463
REMARK  182  A    between atoms: _463  and  _464
REMARK  183  A    between atoms: _463  and  _466
REMARK  184  A    between atoms: _466  and  _467
REMARK  185  A    between atoms: _467  and  _468
REMARK  186  A    between atoms: _468  and  _469
REMARK  187  A    between atoms: _478  and  _480
REMARK  188  A    between atoms: _480  and  _481
REMARK  189  A    between atoms: _480  and  _483
REMARK  190  A    between atoms: _483  and  _484
REMARK  191  A    between atoms: _484  and  _485
REMARK  192  A    between atoms: _488  and  _490
REMARK  193  A    between atoms: _490  and  _491
REMARK  194  A    between atoms: _490  and  _493
REMARK  195  A    between atoms: _493  and  _494
REMARK  196  A    between atoms: _497  and  _499
REMARK  197  A    between atoms: _499  and  _500
REMARK  198  A    between atoms: _503  and  _505
REMARK  199  A    between atoms: _505  and  _506
REMARK  200  A    between atoms: _505  and  _508
REMARK  201  A    between atoms: _508  and  _509
REMARK  202  A    between atoms: _509  and  _510
REMARK  203  A    between atoms: _512  and  _514
REMARK  204  A    between atoms: _514  and  _515
REMARK  205  A    between atoms: _514  and  _517
REMARK  206  A    between atoms: _517  and  _518
REMARK  207  A    between atoms: _520  and  _522
REMARK  208  A    between atoms: _522  and  _523
REMARK  209  A    between atoms: _522  and  _525
REMARK  210  A    between atoms: _525  and  _526
REMARK  211  A    between atoms: _528  and  _530
REMARK  212  A    between atoms: _530  and  _531
REMARK  213  A    between atoms: _530  and  _533
REMARK  214  A    between atoms: _533  and  _534
REMARK  215  A    between atoms: _534  and  _535
REMARK  216  A    between atoms: _535  and  _536
REMARK  217  A    between atoms: _545  and  _547
REMARK  218  A    between atoms: _547  and  _548
REMARK  219  A    between atoms: _547  and  _550
REMARK  220  A    between atoms: _550  and  _551
REMARK  221  A    between atoms: _556  and  _558
REMARK  222  A    between atoms: _558  and  _559
REMARK  223  A    between atoms: _558  and  _561
REMARK  224  A    between atoms: _561  and  _562
REMARK  225  A    between atoms: _565  and  _567
REMARK  226  A    between atoms: _567  and  _568
REMARK  227  A    between atoms: _567  and  _570
REMARK  228  A    between atoms: _570  and  _571
REMARK                            x       y       z     vdW  Elec       q    Type
REMARK                         _______ _______ _______ _____ _____    ______ ____
ROOT
ATOM      1  CB  ASN A   1      18.725  -0.177  -5.980  0.00  0.00    +0.110 C 
ENDROOT
BRANCH   1   2
ATOM      2  CG  ASN A   1      17.523   0.623  -5.533  0.00  0.00    +0.221 C 
ATOM      3  ND2 ASN A   1      17.758   1.649  -4.722  0.00  0.00    -0.329 N 
ATOM      4 HD21 ASN A   1      18.726   1.840  -4.392  0.00  0.00    +0.145 HD
ATOM      5 HD22 ASN A   1      16.974   2.261  -4.417  0.00  0.00    +0.145 HD
ATOM      6  OD1 ASN A   1      16.395   0.349  -5.956  0.00  0.00    -0.275 OA
ENDBRANCH   1   2
BRANCH   1   7
ATOM      7  CA  ASN A   1      19.280   0.337  -7.316  0.00  0.00    +0.142 C 
BRANCH   7   8
ATOM      8  N   ASN A   1      19.791   1.703  -7.184  0.00  0.00    -0.239 NA
ATOM      9  H   ASN A   1      19.210   2.511  -7.486  0.00  0.00    +0.142 HD
ENDBRANCH   7   8
BRANCH   7  10
ATOM     10  C   ASN A   1      18.224   0.323  -8.389  0.00  0.00    +0.225 C 
ATOM     11  O   ASN A   1      17.728   1.386  -8.809  0.00  0.00    -0.287 OA
ENDBRANCH   7  10
ENDBRANCH   1   7
TORSDOF 4
REMARK  Name = ../refined-set-2016/3coz/3coz_pocket.pdb
REMARK  228 active torsions:
REMARK  status: ('A' for Active; 'I' for Inactive)
REMARK    1  A    between atoms: _1  and  _3
REMARK    2  A    between atoms: _3  and  _4
REMARK    3  A    between atoms: _3  and  _6
REMARK    4  A    between atoms: _6  and  _7
REMARK    5  A    between atoms: _10  and  _12
REMARK    6  A    between atoms: _12  and  _13
REMARK    7  A    between atoms: _12  and  _15
REMARK    8  A    between atoms: _19  and  _20
REMARK    9  A    between atoms: _25  and  _27
REMARK   10  A    between atoms: _27  and  _28
REMARK   11  A    between atoms: _27  and  _30
REMARK   12  A    between atoms: _30  and  _31
REMARK   13  A    between atoms: _34  and  _36
REMARK   14  A    between atoms: _36  and  _37
REMARK   15  A    between atoms: _36  and  _39
REMARK   16  A    between atoms: _39  and  _40
REMARK   17  A    between atoms: _40  and  _41
REMARK   18  A    between atoms: _43  and  _45
REMARK   19  A    between atoms: _45  and  _46
REMARK   20  A    between atoms: _48  and  _50
REMARK   21  A    between atoms: _50  and  _51
REMARK   22  A    between atoms: _54  and  _56
REMARK   23  A    between atoms: _56  and  _57
REMARK   24  A    between atoms: _56  and  _59
REMARK   25  A    between atoms: _59  and  _60
REMARK   26  A    between atoms: _63  and  _65
REMARK   27  A    between atoms: _65  and  _66
REMARK   28  A    between atoms: _65  and  _68
REMARK   29  A    between atoms: _68  and  _69
REMARK   30  A    between atoms: _74  and  _76
REMARK   31  A    between atoms: _76  and  _77
REMARK   32  A    between atoms: _76  and  _79
REMARK   33  A    between atoms: _79  and  _80
REMARK   34  A    between atoms: _80  and  _81
REMARK   35  A    between atoms: _84  and  _86
REMARK   36  A    between atoms: _86  and  _87
REMARK   37  A    between atoms: _89  and  _91
REMARK   38  A    between atoms: _91  and  _92
REMARK   39  A    between atoms: _91  and  _94
REMARK   40  A    between atoms: _94  and  _95
REMARK   41  A    between atoms: _100  and  _102
REMARK   42  A    between atoms: _102  and  _103
REMARK   43  A    between atoms: _102  and  _105
REMARK   44  A    between atoms: _105  and  _106
REMARK   45  A    between atoms: _109  and  _111
REMARK   46  A    between atoms: _111  and  _112
REMARK   47  A    between atoms: _115  and  _117
REMARK   48  A    between atoms: _117  and  _118
REMARK   49  A    between atoms: _117  and  _120
REMARK   50  A    between atoms: _120  and  _121
REMARK   51  A    between atoms: _124  and  _126
REMARK   52  A    between atoms: _126  and  _127
REMARK   53  A    between atoms: _126  and  _129
REMARK   54  A    between atoms: _132  and  _134
REMARK   55  A    between atoms: _134  and  _135
REMARK   56  A    between atoms: _134  and  _137
REMARK   57  A    between atoms: _140  and  _142
REMARK   58  A    between atoms: _142  and  _143
REMARK   59  A    between atoms: _142  and  _145
REMARK   60  A    between atoms: _145  and  _146
REMARK   61  A    between atoms: _148  and  _150
REMARK   62  A    between atoms: _150  and  _151
REMARK   63  A    between atoms: _150  and  _153
REMARK   64  A    between atoms: _153  and  _154
REMARK   65  A    between atoms: _157  and  _159
REMARK   66  A    between atoms: _159  and  _160
REMARK   67  A    between atoms: _159  and  _162
REMARK   68  A    between atoms: _162  and  _163
REMARK   69  A    between atoms: _169  and  _171
REMARK   70  A    between atoms: _171  and  _172
REMARK   71  A    between atoms: _171  and  _174
REMARK   72  A    between atoms: _177  and  _179
REMARK   73  A    between atoms: _179  and  _180
REMARK   74  A    between atoms: _179  and  _182
REMARK   75  A    between atoms: _182  and  _183
REMARK   76  A    between atoms: _188  and  _190
REMARK   77  A    between atoms: _190  and  _191
REMARK   78  A    between atoms: _190  and  _193
REMARK   79  A    between atoms: _193  and  _194
REMARK   80  A    between atoms: _194  and  _195
REMARK   81  A    between atoms: _200  and  _202
REMARK   82  A    between atoms: _202  and  _203
REMARK   83  A    between atoms: _202  and  _205
REMARK   84  A    between atoms: _205  and  _206
REMARK   85  A    between atoms: _212  and  _214
REMARK   86  A    between atoms: _214  and  _215
REMARK   87  A    between atoms: _214  and  _217
REMARK   88  A    between atoms: _217  and  _218
REMARK   89  A    between atoms: _223  and  _224
REMARK   90  A    between atoms: _227  and  _228
REMARK   91  A    between atoms: _233  and  _235
REMARK   92  A    between atoms: _235  and  _236
REMARK   93  A    between atoms: _235  and  _238
REMARK   94  A    between atoms: _238  and  _239
REMARK   95  A    between atoms: _244  and  _246
REMARK   96  A    between atoms: _246  and  _247
REMARK   97  A    between atoms: _246  and  _249
REMARK   98  A    between atoms: _249  and  _250
REMARK   99  A    between atoms: _256  and  _258
REMARK  100  A    between atoms: _258  and  _259
REMARK  101  A    between atoms: _261  and  _263
REMARK  102  A    between atoms: _263  and  _264
REMARK  103  A    between atoms: _263  and  _266
REMARK  104  A    between atoms: _269  and  _271
REMARK  105  A    between atoms: _271  and  _272
REMARK  106  A    between atoms: _271  and  _274
REMARK  107  A    between atoms: _274  and  _275
REMARK  108  A    between atoms: _278  and  _280
REMARK  109  A    between atoms: _280  and  _281
REMARK  110  A    between atoms: _280  and  _283
REMARK  111  A    between atoms: _286  and  _288
REMARK  112  A    between atoms: _288  and  _289
REMARK  113  A    between atoms: _288  and  _291
REMARK  114  A    between atoms: _294  and  _296
REMARK  115  A    between atoms: _296  and  _297
REMARK  116  A    between atoms: _296  and  _299
REMARK  117  A    between atoms: _299  and  _300
REMARK  118  A    between atoms: _303  and  _305
REMARK  119  A    between atoms: _305  and  _306
REMARK  120  A    between atoms: _305  and  _308
REMARK  121  A    between atoms: _311  and  _313
REMARK  122  A    between atoms: _313  and  _314
REMARK  123  A    between atoms: _313  and  _316
REMARK  124  A    between atoms: _316  and  _317
REMARK  125  A    between atoms: _323  and  _325
REMARK  126  A    between atoms: _325  and  _326
REMARK  127  A    between atoms: _325  and  _328
REMARK  128  A    between atoms: _328  and  _329
REMARK  129  A    between atoms: _335  and  _337
REMARK  130  A    between atoms: _337  and  _338
REMARK  131  A    between atoms: _340  and  _342
REMARK  132  A    between atoms: _342  and  _343
REMARK  133  A    between atoms: _342  and  _345
REMARK  134  A    between atoms: _345  and  _346
REMARK  135  A    between atoms: _346  and  _347
REMARK  136  A    between atoms: _350  and  _352
REMARK  137  A    between atoms: _352  and  _353
REMARK  138  A    between atoms: _352  and  _355
REMARK  139  A    between atoms: _355  and  _356
REMARK  140  A    between atoms: _356  and  _357
REMARK  141  A    between atoms: _357  and  _358
REMARK  142  A    between atoms: _358  and  _359
REMARK  143  A    between atoms: _363  and  _365
REMARK  144  A    between atoms: _365  and  _366
REMARK  145  A    between atoms: _365  and  _368
REMARK  146  A    between atoms: _368  and  _369
REMARK  147  A    between atoms: _372  and  _374
REMARK  148  A    between atoms: _374  and  _375
REMARK  149  A    between atoms: _374  and  _377
REMARK  150  A    between atoms: _377  and  _378
REMARK  151  A    between atoms: _383  and  _384
REMARK  152  A    between atoms: _386  and  _388
REMARK  153  A    between atoms: _388  and  _389
REMARK  154  A    between atoms: _388  and  _391
REMARK  155  A    between atoms: _391  and  _392
REMARK  156  A    between atoms: _392  and  _393
REMARK  157  A    between atoms: _398  and  _400
REMARK  158  A    between atoms: _400  and  _401
REMARK  159  A    between atoms: _400  and  _403
REMARK  160  A    between atoms: _403  and  _404
REMARK  161  A    between atoms: _407  and  _409
REMARK  162  A    between atoms: _409  and  _410
REMARK  163  A    between atoms: _409  and  _412
REMARK  164  A    between atoms: _412  and  _413
REMARK  165  A    between atoms: _416  and  _418
REMARK  166  A    between atoms: _418  and  _419
REMARK  167  A    between atoms: _418  and  _421
REMARK  168  A    between atoms: _424  and  _426
REMARK  169  A    between atoms: _426  and  _427
REMARK  170  A    between atoms: _429  and  _431
REMARK  171  A    between atoms: _431  and  _432
REMARK  172  A    between atoms: _431  and  _434
REMARK  173  A    between atoms: _438  and  _439
REMARK  174  A    between atoms: _444  and  _446
REMARK  175  A    between atoms: _446  and  _447
REMARK  176  A    between atoms: _446  and  _449
REMARK  177  A    between atoms: _449  and  _450
REMARK  178  A    between atoms: _453  and  _455
REMARK  179  A    between atoms: _455  and  _456
REMARK  180  A    between atoms: _455  and  _458
REMARK  181  A    between atoms: _461  and  _463
REMARK  182  A    between atoms: _463  and  _464
REMARK  183  A    between atoms: _463  and  _466
REMARK  184  A    between atoms: _466  and  _467
REMARK  185  A    between atoms: _467  and  _468
REMARK  186  A    between atoms: _468  and  _469
REMARK  187  A    between atoms: _478  and  _480
REMARK  188  A    between atoms: _480  and  _481
REMARK  189  A    between atoms: _480  and  _483
REMARK  190  A    between atoms: _483  and  _484
REMARK  191  A    between atoms: _484  and  _485
REMARK  192  A    between atoms: _488  and  _490
REMARK  193  A    between atoms: _490  and  _491
REMARK  194  A    between atoms: _490  and  _493
REMARK  195  A    between atoms: _493  and  _494
REMARK  196  A    between atoms: _497  and  _499
REMARK  197  A    between atoms: _499  and  _500
REMARK  198  A    between atoms: _503  and  _505
REMARK  199  A    between atoms: _505  and  _506
REMARK  200  A    between atoms: _505  and  _508
REMARK  201  A    between atoms: _508  and  _509
REMARK  202  A    between atoms: _509  and  _510
REMARK  203  A    between atoms: _512  and  _514
REMARK  204  A    between atoms: _514  and  _515
REMARK  205  A    between atoms: _514  and  _517
REMARK  206  A    between atoms: _517  and  _518
REMARK  207  A    between atoms: _520  and  _522
REMARK  208  A    between atoms: _522  and  _523
REMARK  209  A    between atoms: _522  and  _525
REMARK  210  A    between atoms: _525  and  _526
REMARK  211  A    between atoms: _528  and  _530
REMARK  212  A    between atoms: _530  and  _531
REMARK  213  A    between atoms: _530  and  _533
REMARK  214  A    between atoms: _533  and  _534
REMARK  215  A    between atoms: _534  and  _535
REMARK  216  A    between atoms: _535  and  _536
REMARK  217  A    between atoms: _545  and  _547
REMARK  218  A    between atoms: _547  and  _548
REMARK  219  A    between atoms: _547  and  _550
REMARK  220  A    between atoms: _550  and  _551
REMARK  221  A    between atoms: _556  and  _558
REMARK  222  A    between atoms: _558  and  _559
REMARK  223  A    between atoms: _558  and  _561
REMARK  224  A    between atoms: _561  and  _562
REMARK  225  A    between atoms: _565  and  _567
REMARK  226  A    between atoms: _567  and  _568
REMARK  227  A    between atoms: _567  and  _570
REMARK  228  A    between atoms: _570  and  _571
REMARK                            x       y       z     vdW  Elec       q    Type
REMARK                         _______ _______ _______ _____ _____    ______ ____
ROOT
ATOM      1  O   HOH     1      18.697   2.099   1.937  0.00  0.00    +0.000 OA
ENDROOT
TORSDOF 0
REMARK  Name = ../refined-set-2016/3coz/3coz_pocket.pdb
REMARK  228 active torsions:
REMARK  status: ('A' for Active; 'I' for Inactive)
REMARK    1  A    between atoms: _1  and  _3
REMARK    2  A    between atoms: _3  and  _4
REMARK    3  A    between atoms: _3  and  _6
REMARK    4  A    between atoms: _6  and  _7
REMARK    5  A    between atoms: _10  and  _12
REMARK    6  A    between atoms: _12  and  _13
REMARK    7  A    between atoms: _12  and  _15
REMARK    8  A    between atoms: _19  and  _20
REMARK    9  A    between atoms: _25  and  _27
REMARK   10  A    between atoms: _27  and  _28
REMARK   11  A    between atoms: _27  and  _30
REMARK   12  A    between atoms: _30  and  _31
REMARK   13  A    between atoms: _34  and  _36
REMARK   14  A    between atoms: _36  and  _37
REMARK   15  A    between atoms: _36  and  _39
REMARK   16  A    between atoms: _39  and  _40
REMARK   17  A    between atoms: _40  and  _41
REMARK   18  A    between atoms: _43  and  _45
REMARK   19  A    between atoms: _45  and  _46
REMARK   20  A    between atoms: _48  and  _50
REMARK   21  A    between atoms: _50  and  _51
REMARK   22  A    between atoms: _54  and  _56
REMARK   23  A    between atoms: _56  and  _57
REMARK   24  A    between atoms: _56  and  _59
REMARK   25  A    between atoms: _59  and  _60
REMARK   26  A    between atoms: _63  and  _65
REMARK   27  A    between atoms: _65  and  _66
REMARK   28  A    between atoms: _65  and  _68
REMARK   29  A    between atoms: _68  and  _69
REMARK   30  A    between atoms: _74  and  _76
REMARK   31  A    between atoms: _76  and  _77
REMARK   32  A    between atoms: _76  and  _79
REMARK   33  A    between atoms: _79  and  _80
REMARK   34  A    between atoms: _80  and  _81
REMARK   35  A    between atoms: _84  and  _86
REMARK   36  A    between atoms: _86  and  _87
REMARK   37  A    between atoms: _89  and  _91
REMARK   38  A    between atoms: _91  and  _92
REMARK   39  A    between atoms: _91  and  _94
REMARK   40  A    between atoms: _94  and  _95
REMARK   41  A    between atoms: _100  and  _102
REMARK   42  A    between atoms: _102  and  _103
REMARK   43  A    between atoms: _102  and  _105
REMARK   44  A    between atoms: _105  and  _106
REMARK   45  A    between atoms: _109  and  _111
REMARK   46  A    between atoms: _111  and  _112
REMARK   47  A    between atoms: _115  and  _117
REMARK   48  A    between atoms: _117  and  _118
REMARK   49  A    between atoms: _117  and  _120
REMARK   50  A    between atoms: _120  and  _121
REMARK   51  A    between atoms: _124  and  _126
REMARK   52  A    between atoms: _126  and  _127
REMARK   53  A    between atoms: _126  and  _129
REMARK   54  A    between atoms: _132  and  _134
REMARK   55  A    between atoms: _134  and  _135
REMARK   56  A    between atoms: _134  and  _137
REMARK   57  A    between atoms: _140  and  _142
REMARK   58  A    between atoms: _142  and  _143
REMARK   59  A    between atoms: _142  and  _145
REMARK   60  A    between atoms: _145  and  _146
REMARK   61  A    between atoms: _148  and  _150
REMARK   62  A    between atoms: _150  and  _151
REMARK   63  A    between atoms: _150  and  _153
REMARK   64  A    between atoms: _153  and  _154
REMARK   65  A    between atoms: _157  and  _159
REMARK   66  A    between atoms: _159  and  _160
REMARK   67  A    between atoms: _159  and  _162
REMARK   68  A    between atoms: _162  and  _163
REMARK   69  A    between atoms: _169  and  _171
REMARK   70  A    between atoms: _171  and  _172
REMARK   71  A    between atoms: _171  and  _174
REMARK   72  A    between atoms: _177  and  _179
REMARK   73  A    between atoms: _179  and  _180
REMARK   74  A    between atoms: _179  and  _182
REMARK   75  A    between atoms: _182  and  _183
REMARK   76  A    between atoms: _188  and  _190
REMARK   77  A    between atoms: _190  and  _191
REMARK   78  A    between atoms: _190  and  _193
REMARK   79  A    between atoms: _193  and  _194
REMARK   80  A    between atoms: _194  and  _195
REMARK   81  A    between atoms: _200  and  _202
REMARK   82  A    between atoms: _202  and  _203
REMARK   83  A    between atoms: _202  and  _205
REMARK   84  A    between atoms: _205  and  _206
REMARK   85  A    between atoms: _212  and  _214
REMARK   86  A    between atoms: _214  and  _215
REMARK   87  A    between atoms: _214  and  _217
REMARK   88  A    between atoms: _217  and  _218
REMARK   89  A    between atoms: _223  and  _224
REMARK   90  A    between atoms: _227  and  _228
REMARK   91  A    between atoms: _233  and  _235
REMARK   92  A    between atoms: _235  and  _236
REMARK   93  A    between atoms: _235  and  _238
REMARK   94  A    between atoms: _238  and  _239
REMARK   95  A    between atoms: _244  and  _246
REMARK   96  A    between atoms: _246  and  _247
REMARK   97  A    between atoms: _246  and  _249
REMARK   98  A    between atoms: _249  and  _250
REMARK   99  A    between atoms: _256  and  _258
REMARK  100  A    between atoms: _258  and  _259
REMARK  101  A    between atoms: _261  and  _263
REMARK  102  A    between atoms: _263  and  _264
REMARK  103  A    between atoms: _263  and  _266
REMARK  104  A    between atoms: _269  and  _271
REMARK  105  A    between atoms: _271  and  _272
REMARK  106  A    between atoms: _271  and  _274
REMARK  107  A    between atoms: _274  and  _275
REMARK  108  A    between atoms: _278  and  _280
REMARK  109  A    between atoms: _280  and  _281
REMARK  110  A    between atoms: _280  and  _283
REMARK  111  A    between atoms: _286  and  _288
REMARK  112  A    between atoms: _288  and  _289
REMARK  113  A    between atoms: _288  and  _291
REMARK  114  A    between atoms: _294  and  _296
REMARK  115  A    between atoms: _296  and  _297
REMARK  116  A    between atoms: _296  and  _299
REMARK  117  A    between atoms: _299  and  _300
REMARK  118  A    between atoms: _303  and  _305
REMARK  119  A    between atoms: _305  and  _306
REMARK  120  A    between atoms: _305  and  _308
REMARK  121  A    between atoms: _311  and  _313
REMARK  122  A    between atoms: _313  and  _314
REMARK  123  A    between atoms: _313  and  _316
REMARK  124  A    between atoms: _316  and  _317
REMARK  125  A    between atoms: _323  and  _325
REMARK  126  A    between atoms: _325  and  _326
REMARK  127  A    between atoms: _325  and  _328
REMARK  128  A    between atoms: _328  and  _329
REMARK  129  A    between atoms: _335  and  _337
REMARK  130  A    between atoms: _337  and  _338
REMARK  131  A    between atoms: _340  and  _342
REMARK  132  A    between atoms: _342  and  _343
REMARK  133  A    between atoms: _342  and  _345
REMARK  134  A    between atoms: _345  and  _346
REMARK  135  A    between atoms: _346  and  _347
REMARK  136  A    between atoms: _350  and  _352
REMARK  137  A    between atoms: _352  and  _353
REMARK  138  A    between atoms: _352  and  _355
REMARK  139  A    between atoms: _355  and  _356
REMARK  140  A    between atoms: _356  and  _357
REMARK  141  A    between atoms: _357  and  _358
REMARK  142  A    between atoms: _358  and  _359
REMARK  143  A    between atoms: _363  and  _365
REMARK  144  A    between atoms: _365  and  _366
REMARK  145  A    between atoms: _365  and  _368
REMARK  146  A    between atoms: _368  and  _369
REMARK  147  A    between atoms: _372  and  _374
REMARK  148  A    between atoms: _374  and  _375
REMARK  149  A    between atoms: _374  and  _377
REMARK  150  A    between atoms: _377  and  _378
REMARK  151  A    between atoms: _383  and  _384
REMARK  152  A    between atoms: _386  and  _388
REMARK  153  A    between atoms: _388  and  _389
REMARK  154  A    between atoms: _388  and  _391
REMARK  155  A    between atoms: _391  and  _392
REMARK  156  A    between atoms: _392  and  _393
REMARK  157  A    between atoms: _398  and  _400
REMARK  158  A    between atoms: _400  and  _401
REMARK  159  A    between atoms: _400  and  _403
REMARK  160  A    between atoms: _403  and  _404
REMARK  161  A    between atoms: _407  and  _409
REMARK  162  A    between atoms: _409  and  _410
REMARK  163  A    between atoms: _409  and  _412
REMARK  164  A    between atoms: _412  and  _413
REMARK  165  A    between atoms: _416  and  _418
REMARK  166  A    between atoms: _418  and  _419
REMARK  167  A    between atoms: _418  and  _421
REMARK  168  A    between atoms: _424  and  _426
REMARK  169  A    between atoms: _426  and  _427
REMARK  170  A    between atoms: _429  and  _431
REMARK  171  A    between atoms: _431  and  _432
REMARK  172  A    between atoms: _431  and  _434
REMARK  173  A    between atoms: _438  and  _439
REMARK  174  A    between atoms: _444  and  _446
REMARK  175  A    between atoms: _446  and  _447
REMARK  176  A    between atoms: _446  and  _449
REMARK  177  A    between atoms: _449  and  _450
REMARK  178  A    between atoms: _453  and  _455
REMARK  179  A    between atoms: _455  and  _456
REMARK  180  A    between atoms: _455  and  _458
REMARK  181  A    between atoms: _461  and  _463
REMARK  182  A    between atoms: _463  and  _464
REMARK  183  A    between atoms: _463  and  _466
REMARK  184  A    between atoms: _466  and  _467
REMARK  185  A    between atoms: _467  and  _468
REMARK  186  A    between atoms: _468  and  _469
REMARK  187  A    between atoms: _478  and  _480
REMARK  188  A    between atoms: _480  and  _481
REMARK  189  A    between atoms: _480  and  _483
REMARK  190  A    between atoms: _483  and  _484
REMARK  191  A    between atoms: _484  and  _485
REMARK  192  A    between atoms: _488  and  _490
REMARK  193  A    between atoms: _490  and  _491
REMARK  194  A    between atoms: _490  and  _493
REMARK  195  A    between atoms: _493  and  _494
REMARK  196  A    between atoms: _497  and  _499
REMARK  197  A    between atoms: _499  and  _500
REMARK  198  A    between atoms: _503  and  _505
REMARK  199  A    between atoms: _505  and  _506
REMARK  200  A    between atoms: _505  and  _508
REMARK  201  A    between atoms: _508  and  _509
REMARK  202  A    between atoms: _509  and  _510
REMARK  203  A    between atoms: _512  and  _514
REMARK  204  A    between atoms: _514  and  _515
REMARK  205  A    between atoms: _514  and  _517
REMARK  206  A    between atoms: _517  and  _518
REMARK  207  A    between atoms: _520  and  _522
REMARK  208  A    between atoms: _522  and  _523
REMARK  209  A    between atoms: _522  and  _525
REMARK  210  A    between atoms: _525  and  _526
REMARK  211  A    between atoms: _528  and  _530
REMARK  212  A    between atoms: _530  and  _531
REMARK  213  A    between atoms: _530  and  _533
REMARK  214  A    between atoms: _533  and  _534
REMARK  215  A    between atoms: _534  and  _535
REMARK  216  A    between atoms: _535  and  _536
REMARK  217  A    between atoms: _545  and  _547
REMARK  218  A    between atoms: _547  and  _548
REMARK  219  A    between atoms: _547  and  _550
REMARK  220  A    between atoms: _550  and  _551
REMARK  221  A    between atoms: _556  and  _558
REMARK  222  A    between atoms: _558  and  _559
REMARK  223  A    between atoms: _558  and  _561
REMARK  224  A    between atoms: _561  and  _562
REMARK  225  A    between atoms: _565  and  _567
REMARK  226  A    between atoms: _567  and  _568
REMARK  227  A    between atoms: _567  and  _570
REMARK  228  A    between atoms: _570  and  _571
REMARK                            x       y       z     vdW  Elec       q    Type
REMARK                         _______ _______ _______ _____ _____    ______ ____
ROOT
ATOM      1  O   HOH     1      11.961  13.256   9.753  0.00  0.00    +0.000 OA
ENDROOT
TORSDOF 0
REMARK  Name = ../refined-set-2016/3coz/3coz_pocket.pdb
REMARK  228 active torsions:
REMARK  status: ('A' for Active; 'I' for Inactive)
REMARK    1  A    between atoms: _1  and  _3
REMARK    2  A    between atoms: _3  and  _4
REMARK    3  A    between atoms: _3  and  _6
REMARK    4  A    between atoms: _6  and  _7
REMARK    5  A    between atoms: _10  and  _12
REMARK    6  A    between atoms: _12  and  _13
REMARK    7  A    between atoms: _12  and  _15
REMARK    8  A    between atoms: _19  and  _20
REMARK    9  A    between atoms: _25  and  _27
REMARK   10  A    between atoms: _27  and  _28
REMARK   11  A    between atoms: _27  and  _30
REMARK   12  A    between atoms: _30  and  _31
REMARK   13  A    between atoms: _34  and  _36
REMARK   14  A    between atoms: _36  and  _37
REMARK   15  A    between atoms: _36  and  _39
REMARK   16  A    between atoms: _39  and  _40
REMARK   17  A    between atoms: _40  and  _41
REMARK   18  A    between atoms: _43  and  _45
REMARK   19  A    between atoms: _45  and  _46
REMARK   20  A    between atoms: _48  and  _50
REMARK   21  A    between atoms: _50  and  _51
REMARK   22  A    between atoms: _54  and  _56
REMARK   23  A    between atoms: _56  and  _57
REMARK   24  A    between atoms: _56  and  _59
REMARK   25  A    between atoms: _59  and  _60
REMARK   26  A    between atoms: _63  and  _65
REMARK   27  A    between atoms: _65  and  _66
REMARK   28  A    between atoms: _65  and  _68
REMARK   29  A    between atoms: _68  and  _69
REMARK   30  A    between atoms: _74  and  _76
REMARK   31  A    between atoms: _76  and  _77
REMARK   32  A    between atoms: _76  and  _79
REMARK   33  A    between atoms: _79  and  _80
REMARK   34  A    between atoms: _80  and  _81
REMARK   35  A    between atoms: _84  and  _86
REMARK   36  A    between atoms: _86  and  _87
REMARK   37  A    between atoms: _89  and  _91
REMARK   38  A    between atoms: _91  and  _92
REMARK   39  A    between atoms: _91  and  _94
REMARK   40  A    between atoms: _94  and  _95
REMARK   41  A    between atoms: _100  and  _102
REMARK   42  A    between atoms: _102  and  _103
REMARK   43  A    between atoms: _102  and  _105
REMARK   44  A    between atoms: _105  and  _106
REMARK   45  A    between atoms: _109  and  _111
REMARK   46  A    between atoms: _111  and  _112
REMARK   47  A    between atoms: _115  and  _117
REMARK   48  A    between atoms: _117  and  _118
REMARK   49  A    between atoms: _117  and  _120
REMARK   50  A    between atoms: _120  and  _121
REMARK   51  A    between atoms: _124  and  _126
REMARK   52  A    between atoms: _126  and  _127
REMARK   53  A    between atoms: _126  and  _129
REMARK   54  A    between atoms: _132  and  _134
REMARK   55  A    between atoms: _134  and  _135
REMARK   56  A    between atoms: _134  and  _137
REMARK   57  A    between atoms: _140  and  _142
REMARK   58  A    between atoms: _142  and  _143
REMARK   59  A    between atoms: _142  and  _145
REMARK   60  A    between atoms: _145  and  _146
REMARK   61  A    between atoms: _148  and  _150
REMARK   62  A    between atoms: _150  and  _151
REMARK   63  A    between atoms: _150  and  _153
REMARK   64  A    between atoms: _153  and  _154
REMARK   65  A    between atoms: _157  and  _159
REMARK   66  A    between atoms: _159  and  _160
REMARK   67  A    between atoms: _159  and  _162
REMARK   68  A    between atoms: _162  and  _163
REMARK   69  A    between atoms: _169  and  _171
REMARK   70  A    between atoms: _171  and  _172
REMARK   71  A    between atoms: _171  and  _174
REMARK   72  A    between atoms: _177  and  _179
REMARK   73  A    between atoms: _179  and  _180
REMARK   74  A    between atoms: _179  and  _182
REMARK   75  A    between atoms: _182  and  _183
REMARK   76  A    between atoms: _188  and  _190
REMARK   77  A    between atoms: _190  and  _191
REMARK   78  A    between atoms: _190  and  _193
REMARK   79  A    between atoms: _193  and  _194
REMARK   80  A    between atoms: _194  and  _195
REMARK   81  A    between atoms: _200  and  _202
REMARK   82  A    between atoms: _202  and  _203
REMARK   83  A    between atoms: _202  and  _205
REMARK   84  A    between atoms: _205  and  _206
REMARK   85  A    between atoms: _212  and  _214
REMARK   86  A    between atoms: _214  and  _215
REMARK   87  A    between atoms: _214  and  _217
REMARK   88  A    between atoms: _217  and  _218
REMARK   89  A    between atoms: _223  and  _224
REMARK   90  A    between atoms: _227  and  _228
REMARK   91  A    between atoms: _233  and  _235
REMARK   92  A    between atoms: _235  and  _236
REMARK   93  A    between atoms: _235  and  _238
REMARK   94  A    between atoms: _238  and  _239
REMARK   95  A    between atoms: _244  and  _246
REMARK   96  A    between atoms: _246  and  _247
REMARK   97  A    between atoms: _246  and  _249
REMARK   98  A    between atoms: _249  and  _250
REMARK   99  A    between atoms: _256  and  _258
REMARK  100  A    between atoms: _258  and  _259
REMARK  101  A    between atoms: _261  and  _263
REMARK  102  A    between atoms: _263  and  _264
REMARK  103  A    between atoms: _263  and  _266
REMARK  104  A    between atoms: _269  and  _271
REMARK  105  A    between atoms: _271  and  _272
REMARK  106  A    between atoms: _271  and  _274
REMARK  107  A    between atoms: _274  and  _275
REMARK  108  A    between atoms: _278  and  _280
REMARK  109  A    between atoms: _280  and  _281
REMARK  110  A    between atoms: _280  and  _283
REMARK  111  A    between atoms: _286  and  _288
REMARK  112  A    between atoms: _288  and  _289
REMARK  113  A    between atoms: _288  and  _291
REMARK  114  A    between atoms: _294  and  _296
REMARK  115  A    between atoms: _296  and  _297
REMARK  116  A    between atoms: _296  and  _299
REMARK  117  A    between atoms: _299  and  _300
REMARK  118  A    between atoms: _303  and  _305
REMARK  119  A    between atoms: _305  and  _306
REMARK  120  A    between atoms: _305  and  _308
REMARK  121  A    between atoms: _311  and  _313
REMARK  122  A    between atoms: _313  and  _314
REMARK  123  A    between atoms: _313  and  _316
REMARK  124  A    between atoms: _316  and  _317
REMARK  125  A    between atoms: _323  and  _325
REMARK  126  A    between atoms: _325  and  _326
REMARK  127  A    between atoms: _325  and  _328
REMARK  128  A    between atoms: _328  and  _329
REMARK  129  A    between atoms: _335  and  _337
REMARK  130  A    between atoms: _337  and  _338
REMARK  131  A    between atoms: _340  and  _342
REMARK  132  A    between atoms: _342  and  _343
REMARK  133  A    between atoms: _342  and  _345
REMARK  134  A    between atoms: _345  and  _346
REMARK  135  A    between atoms: _346  and  _347
REMARK  136  A    between atoms: _350  and  _352
REMARK  137  A    between atoms: _352  and  _353
REMARK  138  A    between atoms: _352  and  _355
REMARK  139  A    between atoms: _355  and  _356
REMARK  140  A    between atoms: _356  and  _357
REMARK  141  A    between atoms: _357  and  _358
REMARK  142  A    between atoms: _358  and  _359
REMARK  143  A    between atoms: _363  and  _365
REMARK  144  A    between atoms: _365  and  _366
REMARK  145  A    between atoms: _365  and  _368
REMARK  146  A    between atoms: _368  and  _369
REMARK  147  A    between atoms: _372  and  _374
REMARK  148  A    between atoms: _374  and  _375
REMARK  149  A    between atoms: _374  and  _377
REMARK  150  A    between atoms: _377  and  _378
REMARK  151  A    between atoms: _383  and  _384
REMARK  152  A    between atoms: _386  and  _388
REMARK  153  A    between atoms: _388  and  _389
REMARK  154  A    between atoms: _388  and  _391
REMARK  155  A    between atoms: _391  and  _392
REMARK  156  A    between atoms: _392  and  _393
REMARK  157  A    between atoms: _398  and  _400
REMARK  158  A    between atoms: _400  and  _401
REMARK  159  A    between atoms: _400  and  _403
REMARK  160  A    between atoms: _403  and  _404
REMARK  161  A    between atoms: _407  and  _409
REMARK  162  A    between atoms: _409  and  _410
REMARK  163  A    between atoms: _409  and  _412
REMARK  164  A    between atoms: _412  and  _413
REMARK  165  A    between atoms: _416  and  _418
REMARK  166  A    between atoms: _418  and  _419
REMARK  167  A    between atoms: _418  and  _421
REMARK  168  A    between atoms: _424  and  _426
REMARK  169  A    between atoms: _426  and  _427
REMARK  170  A    between atoms: _429  and  _431
REMARK  171  A    between atoms: _431  and  _432
REMARK  172  A    between atoms: _431  and  _434
REMARK  173  A    between atoms: _438  and  _439
REMARK  174  A    between atoms: _444  and  _446
REMARK  175  A    between atoms: _446  and  _447
REMARK  176  A    between atoms: _446  and  _449
REMARK  177  A    between atoms: _449  and  _450
REMARK  178  A    between atoms: _453  and  _455
REMARK  179  A    between atoms: _455  and  _456
REMARK  180  A    between atoms: _455  and  _458
REMARK  181  A    between atoms: _461  and  _463
REMARK  182  A    between atoms: _463  and  _464
REMARK  183  A    between atoms: _463  and  _466
REMARK  184  A    between atoms: _466  and  _467
REMARK  185  A    between atoms: _467  and  _468
REMARK  186  A    between atoms: _468  and  _469
REMARK  187  A    between atoms: _478  and  _480
REMARK  188  A    between atoms: _480  and  _481
REMARK  189  A    between atoms: _480  and  _483
REMARK  190  A    between atoms: _483  and  _484
REMARK  191  A    between atoms: _484  and  _485
REMARK  192  A    between atoms: _488  and  _490
REMARK  193  A    between atoms: _490  and  _491
REMARK  194  A    between atoms: _490  and  _493
REMARK  195  A    between atoms: _493  and  _494
REMARK  196  A    between atoms: _497  and  _499
REMARK  197  A    between atoms: _499  and  _500
REMARK  198  A    between atoms: _503  and  _505
REMARK  199  A    between atoms: _505  and  _506
REMARK  200  A    between atoms: _505  and  _508
REMARK  201  A    between atoms: _508  and  _509
REMARK  202  A    between atoms: _509  and  _510
REMARK  203  A    between atoms: _512  and  _514
REMARK  204  A    between atoms: _514  and  _515
REMARK  205  A    between atoms: _514  and  _517
REMARK  206  A    between atoms: _517  and  _518
REMARK  207  A    between atoms: _520  and  _522
REMARK  208  A    between atoms: _522  and  _523
REMARK  209  A    between atoms: _522  and  _525
REMARK  210  A    between atoms: _525  and  _526
REMARK  211  A    between atoms: _528  and  _530
REMARK  212  A    between atoms: _530  and  _531
REMARK  213  A    between atoms: _530  and  _533
REMARK  214  A    between atoms: _533  and  _534
REMARK  215  A    between atoms: _534  and  _535
REMARK  216  A    between atoms: _535  and  _536
REMARK  217  A    between atoms: _545  and  _547
REMARK  218  A    between atoms: _547  and  _548
REMARK  219  A    between atoms: _547  and  _550
REMARK  220  A    between atoms: _550  and  _551
REMARK  221  A    between atoms: _556  and  _558
REMARK  222  A    between atoms: _558  and  _559
REMARK  223  A    between atoms: _558  and  _561
REMARK  224  A    between atoms: _561  and  _562
REMARK  225  A    between atoms: _565  and  _567
REMARK  226  A    between atoms: _567  and  _568
REMARK  227  A    between atoms: _567  and  _570
REMARK  228  A    between atoms: _570  and  _571
REMARK                            x       y       z     vdW  Elec       q    Type
REMARK                         _______ _______ _______ _____ _____    ______ ____
ROOT
ATOM      1  O   HOH     1      13.679   4.656   1.616  0.00  0.00    +0.000 OA
ENDROOT
TORSDOF 0
REMARK  Name = ../refined-set-2016/3coz/3coz_pocket.pdb
REMARK  228 active torsions:
REMARK  status: ('A' for Active; 'I' for Inactive)
REMARK    1  A    between atoms: _1  and  _3
REMARK    2  A    between atoms: _3  and  _4
REMARK    3  A    between atoms: _3  and  _6
REMARK    4  A    between atoms: _6  and  _7
REMARK    5  A    between atoms: _10  and  _12
REMARK    6  A    between atoms: _12  and  _13
REMARK    7  A    between atoms: _12  and  _15
REMARK    8  A    between atoms: _19  and  _20
REMARK    9  A    between atoms: _25  and  _27
REMARK   10  A    between atoms: _27  and  _28
REMARK   11  A    between atoms: _27  and  _30
REMARK   12  A    between atoms: _30  and  _31
REMARK   13  A    between atoms: _34  and  _36
REMARK   14  A    between atoms: _36  and  _37
REMARK   15  A    between atoms: _36  and  _39
REMARK   16  A    between atoms: _39  and  _40
REMARK   17  A    between atoms: _40  and  _41
REMARK   18  A    between atoms: _43  and  _45
REMARK   19  A    between atoms: _45  and  _46
REMARK   20  A    between atoms: _48  and  _50
REMARK   21  A    between atoms: _50  and  _51
REMARK   22  A    between atoms: _54  and  _56
REMARK   23  A    between atoms: _56  and  _57
REMARK   24  A    between atoms: _56  and  _59
REMARK   25  A    between atoms: _59  and  _60
REMARK   26  A    between atoms: _63  and  _65
REMARK   27  A    between atoms: _65  and  _66
REMARK   28  A    between atoms: _65  and  _68
REMARK   29  A    between atoms: _68  and  _69
REMARK   30  A    between atoms: _74  and  _76
REMARK   31  A    between atoms: _76  and  _77
REMARK   32  A    between atoms: _76  and  _79
REMARK   33  A    between atoms: _79  and  _80
REMARK   34  A    between atoms: _80  and  _81
REMARK   35  A    between atoms: _84  and  _86
REMARK   36  A    between atoms: _86  and  _87
REMARK   37  A    between atoms: _89  and  _91
REMARK   38  A    between atoms: _91  and  _92
REMARK   39  A    between atoms: _91  and  _94
REMARK   40  A    between atoms: _94  and  _95
REMARK   41  A    between atoms: _100  and  _102
REMARK   42  A    between atoms: _102  and  _103
REMARK   43  A    between atoms: _102  and  _105
REMARK   44  A    between atoms: _105  and  _106
REMARK   45  A    between atoms: _109  and  _111
REMARK   46  A    between atoms: _111  and  _112
REMARK   47  A    between atoms: _115  and  _117
REMARK   48  A    between atoms: _117  and  _118
REMARK   49  A    between atoms: _117  and  _120
REMARK   50  A    between atoms: _120  and  _121
REMARK   51  A    between atoms: _124  and  _126
REMARK   52  A    between atoms: _126  and  _127
REMARK   53  A    between atoms: _126  and  _129
REMARK   54  A    between atoms: _132  and  _134
REMARK   55  A    between atoms: _134  and  _135
REMARK   56  A    between atoms: _134  and  _137
REMARK   57  A    between atoms: _140  and  _142
REMARK   58  A    between atoms: _142  and  _143
REMARK   59  A    between atoms: _142  and  _145
REMARK   60  A    between atoms: _145  and  _146
REMARK   61  A    between atoms: _148  and  _150
REMARK   62  A    between atoms: _150  and  _151
REMARK   63  A    between atoms: _150  and  _153
REMARK   64  A    between atoms: _153  and  _154
REMARK   65  A    between atoms: _157  and  _159
REMARK   66  A    between atoms: _159  and  _160
REMARK   67  A    between atoms: _159  and  _162
REMARK   68  A    between atoms: _162  and  _163
REMARK   69  A    between atoms: _169  and  _171
REMARK   70  A    between atoms: _171  and  _172
REMARK   71  A    between atoms: _171  and  _174
REMARK   72  A    between atoms: _177  and  _179
REMARK   73  A    between atoms: _179  and  _180
REMARK   74  A    between atoms: _179  and  _182
REMARK   75  A    between atoms: _182  and  _183
REMARK   76  A    between atoms: _188  and  _190
REMARK   77  A    between atoms: _190  and  _191
REMARK   78  A    between atoms: _190  and  _193
REMARK   79  A    between atoms: _193  and  _194
REMARK   80  A    between atoms: _194  and  _195
REMARK   81  A    between atoms: _200  and  _202
REMARK   82  A    between atoms: _202  and  _203
REMARK   83  A    between atoms: _202  and  _205
REMARK   84  A    between atoms: _205  and  _206
REMARK   85  A    between atoms: _212  and  _214
REMARK   86  A    between atoms: _214  and  _215
REMARK   87  A    between atoms: _214  and  _217
REMARK   88  A    between atoms: _217  and  _218
REMARK   89  A    between atoms: _223  and  _224
REMARK   90  A    between atoms: _227  and  _228
REMARK   91  A    between atoms: _233  and  _235
REMARK   92  A    between atoms: _235  and  _236
REMARK   93  A    between atoms: _235  and  _238
REMARK   94  A    between atoms: _238  and  _239
REMARK   95  A    between atoms: _244  and  _246
REMARK   96  A    between atoms: _246  and  _247
REMARK   97  A    between atoms: _246  and  _249
REMARK   98  A    between atoms: _249  and  _250
REMARK   99  A    between atoms: _256  and  _258
REMARK  100  A    between atoms: _258  and  _259
REMARK  101  A    between atoms: _261  and  _263
REMARK  102  A    between atoms: _263  and  _264
REMARK  103  A    between atoms: _263  and  _266
REMARK  104  A    between atoms: _269  and  _271
REMARK  105  A    between atoms: _271  and  _272
REMARK  106  A    between atoms: _271  and  _274
REMARK  107  A    between atoms: _274  and  _275
REMARK  108  A    between atoms: _278  and  _280
REMARK  109  A    between atoms: _280  and  _281
REMARK  110  A    between atoms: _280  and  _283
REMARK  111  A    between atoms: _286  and  _288
REMARK  112  A    between atoms: _288  and  _289
REMARK  113  A    between atoms: _288  and  _291
REMARK  114  A    between atoms: _294  and  _296
REMARK  115  A    between atoms: _296  and  _297
REMARK  116  A    between atoms: _296  and  _299
REMARK  117  A    between atoms: _299  and  _300
REMARK  118  A    between atoms: _303  and  _305
REMARK  119  A    between atoms: _305  and  _306
REMARK  120  A    between atoms: _305  and  _308
REMARK  121  A    between atoms: _311  and  _313
REMARK  122  A    between atoms: _313  and  _314
REMARK  123  A    between atoms: _313  and  _316
REMARK  124  A    between atoms: _316  and  _317
REMARK  125  A    between atoms: _323  and  _325
REMARK  126  A    between atoms: _325  and  _326
REMARK  127  A    between atoms: _325  and  _328
REMARK  128  A    between atoms: _328  and  _329
REMARK  129  A    between atoms: _335  and  _337
REMARK  130  A    between atoms: _337  and  _338
REMARK  131  A    between atoms: _340  and  _342
REMARK  132  A    between atoms: _342  and  _343
REMARK  133  A    between atoms: _342  and  _345
REMARK  134  A    between atoms: _345  and  _346
REMARK  135  A    between atoms: _346  and  _347
REMARK  136  A    between atoms: _350  and  _352
REMARK  137  A    between atoms: _352  and  _353
REMARK  138  A    between atoms: _352  and  _355
REMARK  139  A    between atoms: _355  and  _356
REMARK  140  A    between atoms: _356  and  _357
REMARK  141  A    between atoms: _357  and  _358
REMARK  142  A    between atoms: _358  and  _359
REMARK  143  A    between atoms: _363  and  _365
REMARK  144  A    between atoms: _365  and  _366
REMARK  145  A    between atoms: _365  and  _368
REMARK  146  A    between atoms: _368  and  _369
REMARK  147  A    between atoms: _372  and  _374
REMARK  148  A    between atoms: _374  and  _375
REMARK  149  A    between atoms: _374  and  _377
REMARK  150  A    between atoms: _377  and  _378
REMARK  151  A    between atoms: _383  and  _384
REMARK  152  A    between atoms: _386  and  _388
REMARK  153  A    between atoms: _388  and  _389
REMARK  154  A    between atoms: _388  and  _391
REMARK  155  A    between atoms: _391  and  _392
REMARK  156  A    between atoms: _392  and  _393
REMARK  157  A    between atoms: _398  and  _400
REMARK  158  A    between atoms: _400  and  _401
REMARK  159  A    between atoms: _400  and  _403
REMARK  160  A    between atoms: _403  and  _404
REMARK  161  A    between atoms: _407  and  _409
REMARK  162  A    between atoms: _409  and  _410
REMARK  163  A    between atoms: _409  and  _412
REMARK  164  A    between atoms: _412  and  _413
REMARK  165  A    between atoms: _416  and  _418
REMARK  166  A    between atoms: _418  and  _419
REMARK  167  A    between atoms: _418  and  _421
REMARK  168  A    between atoms: _424  and  _426
REMARK  169  A    between atoms: _426  and  _427
REMARK  170  A    between atoms: _429  and  _431
REMARK  171  A    between atoms: _431  and  _432
REMARK  172  A    between atoms: _431  and  _434
REMARK  173  A    between atoms: _438  and  _439
REMARK  174  A    between atoms: _444  and  _446
REMARK  175  A    between atoms: _446  and  _447
REMARK  176  A    between atoms: _446  and  _449
REMARK  177  A    between atoms: _449  and  _450
REMARK  178  A    between atoms: _453  and  _455
REMARK  179  A    between atoms: _455  and  _456
REMARK  180  A    between atoms: _455  and  _458
REMARK  181  A    between atoms: _461  and  _463
REMARK  182  A    between atoms: _463  and  _464
REMARK  183  A    between atoms: _463  and  _466
REMARK  184  A    between atoms: _466  and  _467
REMARK  185  A    between atoms: _467  and  _468
REMARK  186  A    between atoms: _468  and  _469
REMARK  187  A    between atoms: _478  and  _480
REMARK  188  A    between atoms: _480  and  _481
REMARK  189  A    between atoms: _480  and  _483
REMARK  190  A    between atoms: _483  and  _484
REMARK  191  A    between atoms: _484  and  _485
REMARK  192  A    between atoms: _488  and  _490
REMARK  193  A    between atoms: _490  and  _491
REMARK  194  A    between atoms: _490  and  _493
REMARK  195  A    between atoms: _493  and  _494
REMARK  196  A    between atoms: _497  and  _499
REMARK  197  A    between atoms: _499  and  _500
REMARK  198  A    between atoms: _503  and  _505
REMARK  199  A    between atoms: _505  and  _506
REMARK  200  A    between atoms: _505  and  _508
REMARK  201  A    between atoms: _508  and  _509
REMARK  202  A    between atoms: _509  and  _510
REMARK  203  A    between atoms: _512  and  _514
REMARK  204  A    between atoms: _514  and  _515
REMARK  205  A    between atoms: _514  and  _517
REMARK  206  A    between atoms: _517  and  _518
REMARK  207  A    between atoms: _520  and  _522
REMARK  208  A    between atoms: _522  and  _523
REMARK  209  A    between atoms: _522  and  _525
REMARK  210  A    between atoms: _525  and  _526
REMARK  211  A    between atoms: _528  and  _530
REMARK  212  A    between atoms: _530  and  _531
REMARK  213  A    between atoms: _530  and  _533
REMARK  214  A    between atoms: _533  and  _534
REMARK  215  A    between atoms: _534  and  _535
REMARK  216  A    between atoms: _535  and  _536
REMARK  217  A    between atoms: _545  and  _547
REMARK  218  A    between atoms: _547  and  _548
REMARK  219  A    between atoms: _547  and  _550
REMARK  220  A    between atoms: _550  and  _551
REMARK  221  A    between atoms: _556  and  _558
REMARK  222  A    between atoms: _558  and  _559
REMARK  223  A    between atoms: _558  and  _561
REMARK  224  A    between atoms: _561  and  _562
REMARK  225  A    between atoms: _565  and  _567
REMARK  226  A    between atoms: _567  and  _568
REMARK  227  A    between atoms: _567  and  _570
REMARK  228  A    between atoms: _570  and  _571
REMARK                            x       y       z     vdW  Elec       q    Type
REMARK                         _______ _______ _______ _____ _____    ______ ____
ROOT
ATOM      1  O   HOH     1      10.683   9.287   3.491  0.00  0.00    +0.000 OA
ENDROOT
TORSDOF 0
REMARK  Name = ../refined-set-2016/3coz/3coz_pocket.pdb
REMARK  228 active torsions:
REMARK  status: ('A' for Active; 'I' for Inactive)
REMARK    1  A    between atoms: _1  and  _3
REMARK    2  A    between atoms: _3  and  _4
REMARK    3  A    between atoms: _3  and  _6
REMARK    4  A    between atoms: _6  and  _7
REMARK    5  A    between atoms: _10  and  _12
REMARK    6  A    between atoms: _12  and  _13
REMARK    7  A    between atoms: _12  and  _15
REMARK    8  A    between atoms: _19  and  _20
REMARK    9  A    between atoms: _25  and  _27
REMARK   10  A    between atoms: _27  and  _28
REMARK   11  A    between atoms: _27  and  _30
REMARK   12  A    between atoms: _30  and  _31
REMARK   13  A    between atoms: _34  and  _36
REMARK   14  A    between atoms: _36  and  _37
REMARK   15  A    between atoms: _36  and  _39
REMARK   16  A    between atoms: _39  and  _40
REMARK   17  A    between atoms: _40  and  _41
REMARK   18  A    between atoms: _43  and  _45
REMARK   19  A    between atoms: _45  and  _46
REMARK   20  A    between atoms: _48  and  _50
REMARK   21  A    between atoms: _50  and  _51
REMARK   22  A    between atoms: _54  and  _56
REMARK   23  A    between atoms: _56  and  _57
REMARK   24  A    between atoms: _56  and  _59
REMARK   25  A    between atoms: _59  and  _60
REMARK   26  A    between atoms: _63  and  _65
REMARK   27  A    between atoms: _65  and  _66
REMARK   28  A    between atoms: _65  and  _68
REMARK   29  A    between atoms: _68  and  _69
REMARK   30  A    between atoms: _74  and  _76
REMARK   31  A    between atoms: _76  and  _77
REMARK   32  A    between atoms: _76  and  _79
REMARK   33  A    between atoms: _79  and  _80
REMARK   34  A    between atoms: _80  and  _81
REMARK   35  A    between atoms: _84  and  _86
REMARK   36  A    between atoms: _86  and  _87
REMARK   37  A    between atoms: _89  and  _91
REMARK   38  A    between atoms: _91  and  _92
REMARK   39  A    between atoms: _91  and  _94
REMARK   40  A    between atoms: _94  and  _95
REMARK   41  A    between atoms: _100  and  _102
REMARK   42  A    between atoms: _102  and  _103
REMARK   43  A    between atoms: _102  and  _105
REMARK   44  A    between atoms: _105  and  _106
REMARK   45  A    between atoms: _109  and  _111
REMARK   46  A    between atoms: _111  and  _112
REMARK   47  A    between atoms: _115  and  _117
REMARK   48  A    between atoms: _117  and  _118
REMARK   49  A    between atoms: _117  and  _120
REMARK   50  A    between atoms: _120  and  _121
REMARK   51  A    between atoms: _124  and  _126
REMARK   52  A    between atoms: _126  and  _127
REMARK   53  A    between atoms: _126  and  _129
REMARK   54  A    between atoms: _132  and  _134
REMARK   55  A    between atoms: _134  and  _135
REMARK   56  A    between atoms: _134  and  _137
REMARK   57  A    between atoms: _140  and  _142
REMARK   58  A    between atoms: _142  and  _143
REMARK   59  A    between atoms: _142  and  _145
REMARK   60  A    between atoms: _145  and  _146
REMARK   61  A    between atoms: _148  and  _150
REMARK   62  A    between atoms: _150  and  _151
REMARK   63  A    between atoms: _150  and  _153
REMARK   64  A    between atoms: _153  and  _154
REMARK   65  A    between atoms: _157  and  _159
REMARK   66  A    between atoms: _159  and  _160
REMARK   67  A    between atoms: _159  and  _162
REMARK   68  A    between atoms: _162  and  _163
REMARK   69  A    between atoms: _169  and  _171
REMARK   70  A    between atoms: _171  and  _172
REMARK   71  A    between atoms: _171  and  _174
REMARK   72  A    between atoms: _177  and  _179
REMARK   73  A    between atoms: _179  and  _180
REMARK   74  A    between atoms: _179  and  _182
REMARK   75  A    between atoms: _182  and  _183
REMARK   76  A    between atoms: _188  and  _190
REMARK   77  A    between atoms: _190  and  _191
REMARK   78  A    between atoms: _190  and  _193
REMARK   79  A    between atoms: _193  and  _194
REMARK   80  A    between atoms: _194  and  _195
REMARK   81  A    between atoms: _200  and  _202
REMARK   82  A    between atoms: _202  and  _203
REMARK   83  A    between atoms: _202  and  _205
REMARK   84  A    between atoms: _205  and  _206
REMARK   85  A    between atoms: _212  and  _214
REMARK   86  A    between atoms: _214  and  _215
REMARK   87  A    between atoms: _214  and  _217
REMARK   88  A    between atoms: _217  and  _218
REMARK   89  A    between atoms: _223  and  _224
REMARK   90  A    between atoms: _227  and  _228
REMARK   91  A    between atoms: _233  and  _235
REMARK   92  A    between atoms: _235  and  _236
REMARK   93  A    between atoms: _235  and  _238
REMARK   94  A    between atoms: _238  and  _239
REMARK   95  A    between atoms: _244  and  _246
REMARK   96  A    between atoms: _246  and  _247
REMARK   97  A    between atoms: _246  and  _249
REMARK   98  A    between atoms: _249  and  _250
REMARK   99  A    between atoms: _256  and  _258
REMARK  100  A    between atoms: _258  and  _259
REMARK  101  A    between atoms: _261  and  _263
REMARK  102  A    between atoms: _263  and  _264
REMARK  103  A    between atoms: _263  and  _266
REMARK  104  A    between atoms: _269  and  _271
REMARK  105  A    between atoms: _271  and  _272
REMARK  106  A    between atoms: _271  and  _274
REMARK  107  A    between atoms: _274  and  _275
REMARK  108  A    between atoms: _278  and  _280
REMARK  109  A    between atoms: _280  and  _281
REMARK  110  A    between atoms: _280  and  _283
REMARK  111  A    between atoms: _286  and  _288
REMARK  112  A    between atoms: _288  and  _289
REMARK  113  A    between atoms: _288  and  _291
REMARK  114  A    between atoms: _294  and  _296
REMARK  115  A    between atoms: _296  and  _297
REMARK  116  A    between atoms: _296  and  _299
REMARK  117  A    between atoms: _299  and  _300
REMARK  118  A    between atoms: _303  and  _305
REMARK  119  A    between atoms: _305  and  _306
REMARK  120  A    between atoms: _305  and  _308
REMARK  121  A    between atoms: _311  and  _313
REMARK  122  A    between atoms: _313  and  _314
REMARK  123  A    between atoms: _313  and  _316
REMARK  124  A    between atoms: _316  and  _317
REMARK  125  A    between atoms: _323  and  _325
REMARK  126  A    between atoms: _325  and  _326
REMARK  127  A    between atoms: _325  and  _328
REMARK  128  A    between atoms: _328  and  _329
REMARK  129  A    between atoms: _335  and  _337
REMARK  130  A    between atoms: _337  and  _338
REMARK  131  A    between atoms: _340  and  _342
REMARK  132  A    between atoms: _342  and  _343
REMARK  133  A    between atoms: _342  and  _345
REMARK  134  A    between atoms: _345  and  _346
REMARK  135  A    between atoms: _346  and  _347
REMARK  136  A    between atoms: _350  and  _352
REMARK  137  A    between atoms: _352  and  _353
REMARK  138  A    between atoms: _352  and  _355
REMARK  139  A    between atoms: _355  and  _356
REMARK  140  A    between atoms: _356  and  _357
REMARK  141  A    between atoms: _357  and  _358
REMARK  142  A    between atoms: _358  and  _359
REMARK  143  A    between atoms: _363  and  _365
REMARK  144  A    between atoms: _365  and  _366
REMARK  145  A    between atoms: _365  and  _368
REMARK  146  A    between atoms: _368  and  _369
REMARK  147  A    between atoms: _372  and  _374
REMARK  148  A    between atoms: _374  and  _375
REMARK  149  A    between atoms: _374  and  _377
REMARK  150  A    between atoms: _377  and  _378
REMARK  151  A    between atoms: _383  and  _384
REMARK  152  A    between atoms: _386  and  _388
REMARK  153  A    between atoms: _388  and  _389
REMARK  154  A    between atoms: _388  and  _391
REMARK  155  A    between atoms: _391  and  _392
REMARK  156  A    between atoms: _392  and  _393
REMARK  157  A    between atoms: _398  and  _400
REMARK  158  A    between atoms: _400  and  _401
REMARK  159  A    between atoms: _400  and  _403
REMARK  160  A    between atoms: _403  and  _404
REMARK  161  A    between atoms: _407  and  _409
REMARK  162  A    between atoms: _409  and  _410
REMARK  163  A    between atoms: _409  and  _412
REMARK  164  A    between atoms: _412  and  _413
REMARK  165  A    between atoms: _416  and  _418
REMARK  166  A    between atoms: _418  and  _419
REMARK  167  A    between atoms: _418  and  _421
REMARK  168  A    between atoms: _424  and  _426
REMARK  169  A    between atoms: _426  and  _427
REMARK  170  A    between atoms: _429  and  _431
REMARK  171  A    between atoms: _431  and  _432
REMARK  172  A    between atoms: _431  and  _434
REMARK  173  A    between atoms: _438  and  _439
REMARK  174  A    between atoms: _444  and  _446
REMARK  175  A    between atoms: _446  and  _447
REMARK  176  A    between atoms: _446  and  _449
REMARK  177  A    between atoms: _449  and  _450
REMARK  178  A    between atoms: _453  and  _455
REMARK  179  A    between atoms: _455  and  _456
REMARK  180  A    between atoms: _455  and  _458
REMARK  181  A    between atoms: _461  and  _463
REMARK  182  A    between atoms: _463  and  _464
REMARK  183  A    between atoms: _463  and  _466
REMARK  184  A    between atoms: _466  and  _467
REMARK  185  A    between atoms: _467  and  _468
REMARK  186  A    between atoms: _468  and  _469
REMARK  187  A    between atoms: _478  and  _480
REMARK  188  A    between atoms: _480  and  _481
REMARK  189  A    between atoms: _480  and  _483
REMARK  190  A    between atoms: _483  and  _484
REMARK  191  A    between atoms: _484  and  _485
REMARK  192  A    between atoms: _488  and  _490
REMARK  193  A    between atoms: _490  and  _491
REMARK  194  A    between atoms: _490  and  _493
REMARK  195  A    between atoms: _493  and  _494
REMARK  196  A    between atoms: _497  and  _499
REMARK  197  A    between atoms: _499  and  _500
REMARK  198  A    between atoms: _503  and  _505
REMARK  199  A    between atoms: _505  and  _506
REMARK  200  A    between atoms: _505  and  _508
REMARK  201  A    between atoms: _508  and  _509
REMARK  202  A    between atoms: _509  and  _510
REMARK  203  A    between atoms: _512  and  _514
REMARK  204  A    between atoms: _514  and  _515
REMARK  205  A    between atoms: _514  and  _517
REMARK  206  A    between atoms: _517  and  _518
REMARK  207  A    between atoms: _520  and  _522
REMARK  208  A    between atoms: _522  and  _523
REMARK  209  A    between atoms: _522  and  _525
REMARK  210  A    between atoms: _525  and  _526
REMARK  211  A    between atoms: _528  and  _530
REMARK  212  A    between atoms: _530  and  _531
REMARK  213  A    between atoms: _530  and  _533
REMARK  214  A    between atoms: _533  and  _534
REMARK  215  A    between atoms: _534  and  _535
REMARK  216  A    between atoms: _535  and  _536
REMARK  217  A    between atoms: _545  and  _547
REMARK  218  A    between atoms: _547  and  _548
REMARK  219  A    between atoms: _547  and  _550
REMARK  220  A    between atoms: _550  and  _551
REMARK  221  A    between atoms: _556  and  _558
REMARK  222  A    between atoms: _558  and  _559
REMARK  223  A    between atoms: _558  and  _561
REMARK  224  A    between atoms: _561  and  _562
REMARK  225  A    between atoms: _565  and  _567
REMARK  226  A    between atoms: _567  and  _568
REMARK  227  A    between atoms: _567  and  _570
REMARK  228  A    between atoms: _570  and  _571
REMARK                            x       y       z     vdW  Elec       q    Type
REMARK                         _______ _______ _______ _____ _____    ______ ____
ROOT
ATOM      1  O   HOH     1      23.248   9.953  -6.513  0.00  0.00    +0.000 OA
ENDROOT
TORSDOF 0
REMARK  Name = ../refined-set-2016/3coz/3coz_pocket.pdb
REMARK  228 active torsions:
REMARK  status: ('A' for Active; 'I' for Inactive)
REMARK    1  A    between atoms: _1  and  _3
REMARK    2  A    between atoms: _3  and  _4
REMARK    3  A    between atoms: _3  and  _6
REMARK    4  A    between atoms: _6  and  _7
REMARK    5  A    between atoms: _10  and  _12
REMARK    6  A    between atoms: _12  and  _13
REMARK    7  A    between atoms: _12  and  _15
REMARK    8  A    between atoms: _19  and  _20
REMARK    9  A    between atoms: _25  and  _27
REMARK   10  A    between atoms: _27  and  _28
REMARK   11  A    between atoms: _27  and  _30
REMARK   12  A    between atoms: _30  and  _31
REMARK   13  A    between atoms: _34  and  _36
REMARK   14  A    between atoms: _36  and  _37
REMARK   15  A    between atoms: _36  and  _39
REMARK   16  A    between atoms: _39  and  _40
REMARK   17  A    between atoms: _40  and  _41
REMARK   18  A    between atoms: _43  and  _45
REMARK   19  A    between atoms: _45  and  _46
REMARK   20  A    between atoms: _48  and  _50
REMARK   21  A    between atoms: _50  and  _51
REMARK   22  A    between atoms: _54  and  _56
REMARK   23  A    between atoms: _56  and  _57
REMARK   24  A    between atoms: _56  and  _59
REMARK   25  A    between atoms: _59  and  _60
REMARK   26  A    between atoms: _63  and  _65
REMARK   27  A    between atoms: _65  and  _66
REMARK   28  A    between atoms: _65  and  _68
REMARK   29  A    between atoms: _68  and  _69
REMARK   30  A    between atoms: _74  and  _76
REMARK   31  A    between atoms: _76  and  _77
REMARK   32  A    between atoms: _76  and  _79
REMARK   33  A    between atoms: _79  and  _80
REMARK   34  A    between atoms: _80  and  _81
REMARK   35  A    between atoms: _84  and  _86
REMARK   36  A    between atoms: _86  and  _87
REMARK   37  A    between atoms: _89  and  _91
REMARK   38  A    between atoms: _91  and  _92
REMARK   39  A    between atoms: _91  and  _94
REMARK   40  A    between atoms: _94  and  _95
REMARK   41  A    between atoms: _100  and  _102
REMARK   42  A    between atoms: _102  and  _103
REMARK   43  A    between atoms: _102  and  _105
REMARK   44  A    between atoms: _105  and  _106
REMARK   45  A    between atoms: _109  and  _111
REMARK   46  A    between atoms: _111  and  _112
REMARK   47  A    between atoms: _115  and  _117
REMARK   48  A    between atoms: _117  and  _118
REMARK   49  A    between atoms: _117  and  _120
REMARK   50  A    between atoms: _120  and  _121
REMARK   51  A    between atoms: _124  and  _126
REMARK   52  A    between atoms: _126  and  _127
REMARK   53  A    between atoms: _126  and  _129
REMARK   54  A    between atoms: _132  and  _134
REMARK   55  A    between atoms: _134  and  _135
REMARK   56  A    between atoms: _134  and  _137
REMARK   57  A    between atoms: _140  and  _142
REMARK   58  A    between atoms: _142  and  _143
REMARK   59  A    between atoms: _142  and  _145
REMARK   60  A    between atoms: _145  and  _146
REMARK   61  A    between atoms: _148  and  _150
REMARK   62  A    between atoms: _150  and  _151
REMARK   63  A    between atoms: _150  and  _153
REMARK   64  A    between atoms: _153  and  _154
REMARK   65  A    between atoms: _157  and  _159
REMARK   66  A    between atoms: _159  and  _160
REMARK   67  A    between atoms: _159  and  _162
REMARK   68  A    between atoms: _162  and  _163
REMARK   69  A    between atoms: _169  and  _171
REMARK   70  A    between atoms: _171  and  _172
REMARK   71  A    between atoms: _171  and  _174
REMARK   72  A    between atoms: _177  and  _179
REMARK   73  A    between atoms: _179  and  _180
REMARK   74  A    between atoms: _179  and  _182
REMARK   75  A    between atoms: _182  and  _183
REMARK   76  A    between atoms: _188  and  _190
REMARK   77  A    between atoms: _190  and  _191
REMARK   78  A    between atoms: _190  and  _193
REMARK   79  A    between atoms: _193  and  _194
REMARK   80  A    between atoms: _194  and  _195
REMARK   81  A    between atoms: _200  and  _202
REMARK   82  A    between atoms: _202  and  _203
REMARK   83  A    between atoms: _202  and  _205
REMARK   84  A    between atoms: _205  and  _206
REMARK   85  A    between atoms: _212  and  _214
REMARK   86  A    between atoms: _214  and  _215
REMARK   87  A    between atoms: _214  and  _217
REMARK   88  A    between atoms: _217  and  _218
REMARK   89  A    between atoms: _223  and  _224
REMARK   90  A    between atoms: _227  and  _228
REMARK   91  A    between atoms: _233  and  _235
REMARK   92  A    between atoms: _235  and  _236
REMARK   93  A    between atoms: _235  and  _238
REMARK   94  A    between atoms: _238  and  _239
REMARK   95  A    between atoms: _244  and  _246
REMARK   96  A    between atoms: _246  and  _247
REMARK   97  A    between atoms: _246  and  _249
REMARK   98  A    between atoms: _249  and  _250
REMARK   99  A    between atoms: _256  and  _258
REMARK  100  A    between atoms: _258  and  _259
REMARK  101  A    between atoms: _261  and  _263
REMARK  102  A    between atoms: _263  and  _264
REMARK  103  A    between atoms: _263  and  _266
REMARK  104  A    between atoms: _269  and  _271
REMARK  105  A    between atoms: _271  and  _272
REMARK  106  A    between atoms: _271  and  _274
REMARK  107  A    between atoms: _274  and  _275
REMARK  108  A    between atoms: _278  and  _280
REMARK  109  A    between atoms: _280  and  _281
REMARK  110  A    between atoms: _280  and  _283
REMARK  111  A    between atoms: _286  and  _288
REMARK  112  A    between atoms: _288  and  _289
REMARK  113  A    between atoms: _288  and  _291
REMARK  114  A    between atoms: _294  and  _296
REMARK  115  A    between atoms: _296  and  _297
REMARK  116  A    between atoms: _296  and  _299
REMARK  117  A    between atoms: _299  and  _300
REMARK  118  A    between atoms: _303  and  _305
REMARK  119  A    between atoms: _305  and  _306
REMARK  120  A    between atoms: _305  and  _308
REMARK  121  A    between atoms: _311  and  _313
REMARK  122  A    between atoms: _313  and  _314
REMARK  123  A    between atoms: _313  and  _316
REMARK  124  A    between atoms: _316  and  _317
REMARK  125  A    between atoms: _323  and  _325
REMARK  126  A    between atoms: _325  and  _326
REMARK  127  A    between atoms: _325  and  _328
REMARK  128  A    between atoms: _328  and  _329
REMARK  129  A    between atoms: _335  and  _337
REMARK  130  A    between atoms: _337  and  _338
REMARK  131  A    between atoms: _340  and  _342
REMARK  132  A    between atoms: _342  and  _343
REMARK  133  A    between atoms: _342  and  _345
REMARK  134  A    between atoms: _345  and  _346
REMARK  135  A    between atoms: _346  and  _347
REMARK  136  A    between atoms: _350  and  _352
REMARK  137  A    between atoms: _352  and  _353
REMARK  138  A    between atoms: _352  and  _355
REMARK  139  A    between atoms: _355  and  _356
REMARK  140  A    between atoms: _356  and  _357
REMARK  141  A    between atoms: _357  and  _358
REMARK  142  A    between atoms: _358  and  _359
REMARK  143  A    between atoms: _363  and  _365
REMARK  144  A    between atoms: _365  and  _366
REMARK  145  A    between atoms: _365  and  _368
REMARK  146  A    between atoms: _368  and  _369
REMARK  147  A    between atoms: _372  and  _374
REMARK  148  A    between atoms: _374  and  _375
REMARK  149  A    between atoms: _374  and  _377
REMARK  150  A    between atoms: _377  and  _378
REMARK  151  A    between atoms: _383  and  _384
REMARK  152  A    between atoms: _386  and  _388
REMARK  153  A    between atoms: _388  and  _389
REMARK  154  A    between atoms: _388  and  _391
REMARK  155  A    between atoms: _391  and  _392
REMARK  156  A    between atoms: _392  and  _393
REMARK  157  A    between atoms: _398  and  _400
REMARK  158  A    between atoms: _400  and  _401
REMARK  159  A    between atoms: _400  and  _403
REMARK  160  A    between atoms: _403  and  _404
REMARK  161  A    between atoms: _407  and  _409
REMARK  162  A    between atoms: _409  and  _410
REMARK  163  A    between atoms: _409  and  _412
REMARK  164  A    between atoms: _412  and  _413
REMARK  165  A    between atoms: _416  and  _418
REMARK  166  A    between atoms: _418  and  _419
REMARK  167  A    between atoms: _418  and  _421
REMARK  168  A    between atoms: _424  and  _426
REMARK  169  A    between atoms: _426  and  _427
REMARK  170  A    between atoms: _429  and  _431
REMARK  171  A    between atoms: _431  and  _432
REMARK  172  A    between atoms: _431  and  _434
REMARK  173  A    between atoms: _438  and  _439
REMARK  174  A    between atoms: _444  and  _446
REMARK  175  A    between atoms: _446  and  _447
REMARK  176  A    between atoms: _446  and  _449
REMARK  177  A    between atoms: _449  and  _450
REMARK  178  A    between atoms: _453  and  _455
REMARK  179  A    between atoms: _455  and  _456
REMARK  180  A    between atoms: _455  and  _458
REMARK  181  A    between atoms: _461  and  _463
REMARK  182  A    between atoms: _463  and  _464
REMARK  183  A    between atoms: _463  and  _466
REMARK  184  A    between atoms: _466  and  _467
REMARK  185  A    between atoms: _467  and  _468
REMARK  186  A    between atoms: _468  and  _469
REMARK  187  A    between atoms: _478  and  _480
REMARK  188  A    between atoms: _480  and  _481
REMARK  189  A    between atoms: _480  and  _483
REMARK  190  A    between atoms: _483  and  _484
REMARK  191  A    between atoms: _484  and  _485
REMARK  192  A    between atoms: _488  and  _490
REMARK  193  A    between atoms: _490  and  _491
REMARK  194  A    between atoms: _490  and  _493
REMARK  195  A    between atoms: _493  and  _494
REMARK  196  A    between atoms: _497  and  _499
REMARK  197  A    between atoms: _499  and  _500
REMARK  198  A    between atoms: _503  and  _505
REMARK  199  A    between atoms: _505  and  _506
REMARK  200  A    between atoms: _505  and  _508
REMARK  201  A    between atoms: _508  and  _509
REMARK  202  A    between atoms: _509  and  _510
REMARK  203  A    between atoms: _512  and  _514
REMARK  204  A    between atoms: _514  and  _515
REMARK  205  A    between atoms: _514  and  _517
REMARK  206  A    between atoms: _517  and  _518
REMARK  207  A    between atoms: _520  and  _522
REMARK  208  A    between atoms: _522  and  _523
REMARK  209  A    between atoms: _522  and  _525
REMARK  210  A    between atoms: _525  and  _526
REMARK  211  A    between atoms: _528  and  _530
REMARK  212  A    between atoms: _530  and  _531
REMARK  213  A    between atoms: _530  and  _533
REMARK  214  A    between atoms: _533  and  _534
REMARK  215  A    between atoms: _534  and  _535
REMARK  216  A    between atoms: _535  and  _536
REMARK  217  A    between atoms: _545  and  _547
REMARK  218  A    between atoms: _547  and  _548
REMARK  219  A    between atoms: _547  and  _550
REMARK  220  A    between atoms: _550  and  _551
REMARK  221  A    between atoms: _556  and  _558
REMARK  222  A    between atoms: _558  and  _559
REMARK  223  A    between atoms: _558  and  _561
REMARK  224  A    between atoms: _561  and  _562
REMARK  225  A    between atoms: _565  and  _567
REMARK  226  A    between atoms: _567  and  _568
REMARK  227  A    between atoms: _567  and  _570
REMARK  228  A    between atoms: _570  and  _571
REMARK                            x       y       z     vdW  Elec       q    Type
REMARK                         _______ _______ _______ _____ _____    ______ ____
ROOT
ATOM      1  O   HOH     1      23.148   8.430  -3.921  0.00  0.00    +0.000 OA
ENDROOT
TORSDOF 0
REMARK  Name = ../refined-set-2016/3coz/3coz_pocket.pdb
REMARK  228 active torsions:
REMARK  status: ('A' for Active; 'I' for Inactive)
REMARK    1  A    between atoms: _1  and  _3
REMARK    2  A    between atoms: _3  and  _4
REMARK    3  A    between atoms: _3  and  _6
REMARK    4  A    between atoms: _6  and  _7
REMARK    5  A    between atoms: _10  and  _12
REMARK    6  A    between atoms: _12  and  _13
REMARK    7  A    between atoms: _12  and  _15
REMARK    8  A    between atoms: _19  and  _20
REMARK    9  A    between atoms: _25  and  _27
REMARK   10  A    between atoms: _27  and  _28
REMARK   11  A    between atoms: _27  and  _30
REMARK   12  A    between atoms: _30  and  _31
REMARK   13  A    between atoms: _34  and  _36
REMARK   14  A    between atoms: _36  and  _37
REMARK   15  A    between atoms: _36  and  _39
REMARK   16  A    between atoms: _39  and  _40
REMARK   17  A    between atoms: _40  and  _41
REMARK   18  A    between atoms: _43  and  _45
REMARK   19  A    between atoms: _45  and  _46
REMARK   20  A    between atoms: _48  and  _50
REMARK   21  A    between atoms: _50  and  _51
REMARK   22  A    between atoms: _54  and  _56
REMARK   23  A    between atoms: _56  and  _57
REMARK   24  A    between atoms: _56  and  _59
REMARK   25  A    between atoms: _59  and  _60
REMARK   26  A    between atoms: _63  and  _65
REMARK   27  A    between atoms: _65  and  _66
REMARK   28  A    between atoms: _65  and  _68
REMARK   29  A    between atoms: _68  and  _69
REMARK   30  A    between atoms: _74  and  _76
REMARK   31  A    between atoms: _76  and  _77
REMARK   32  A    between atoms: _76  and  _79
REMARK   33  A    between atoms: _79  and  _80
REMARK   34  A    between atoms: _80  and  _81
REMARK   35  A    between atoms: _84  and  _86
REMARK   36  A    between atoms: _86  and  _87
REMARK   37  A    between atoms: _89  and  _91
REMARK   38  A    between atoms: _91  and  _92
REMARK   39  A    between atoms: _91  and  _94
REMARK   40  A    between atoms: _94  and  _95
REMARK   41  A    between atoms: _100  and  _102
REMARK   42  A    between atoms: _102  and  _103
REMARK   43  A    between atoms: _102  and  _105
REMARK   44  A    between atoms: _105  and  _106
REMARK   45  A    between atoms: _109  and  _111
REMARK   46  A    between atoms: _111  and  _112
REMARK   47  A    between atoms: _115  and  _117
REMARK   48  A    between atoms: _117  and  _118
REMARK   49  A    between atoms: _117  and  _120
REMARK   50  A    between atoms: _120  and  _121
REMARK   51  A    between atoms: _124  and  _126
REMARK   52  A    between atoms: _126  and  _127
REMARK   53  A    between atoms: _126  and  _129
REMARK   54  A    between atoms: _132  and  _134
REMARK   55  A    between atoms: _134  and  _135
REMARK   56  A    between atoms: _134  and  _137
REMARK   57  A    between atoms: _140  and  _142
REMARK   58  A    between atoms: _142  and  _143
REMARK   59  A    between atoms: _142  and  _145
REMARK   60  A    between atoms: _145  and  _146
REMARK   61  A    between atoms: _148  and  _150
REMARK   62  A    between atoms: _150  and  _151
REMARK   63  A    between atoms: _150  and  _153
REMARK   64  A    between atoms: _153  and  _154
REMARK   65  A    between atoms: _157  and  _159
REMARK   66  A    between atoms: _159  and  _160
REMARK   67  A    between atoms: _159  and  _162
REMARK   68  A    between atoms: _162  and  _163
REMARK   69  A    between atoms: _169  and  _171
REMARK   70  A    between atoms: _171  and  _172
REMARK   71  A    between atoms: _171  and  _174
REMARK   72  A    between atoms: _177  and  _179
REMARK   73  A    between atoms: _179  and  _180
REMARK   74  A    between atoms: _179  and  _182
REMARK   75  A    between atoms: _182  and  _183
REMARK   76  A    between atoms: _188  and  _190
REMARK   77  A    between atoms: _190  and  _191
REMARK   78  A    between atoms: _190  and  _193
REMARK   79  A    between atoms: _193  and  _194
REMARK   80  A    between atoms: _194  and  _195
REMARK   81  A    between atoms: _200  and  _202
REMARK   82  A    between atoms: _202  and  _203
REMARK   83  A    between atoms: _202  and  _205
REMARK   84  A    between atoms: _205  and  _206
REMARK   85  A    between atoms: _212  and  _214
REMARK   86  A    between atoms: _214  and  _215
REMARK   87  A    between atoms: _214  and  _217
REMARK   88  A    between atoms: _217  and  _218
REMARK   89  A    between atoms: _223  and  _224
REMARK   90  A    between atoms: _227  and  _228
REMARK   91  A    between atoms: _233  and  _235
REMARK   92  A    between atoms: _235  and  _236
REMARK   93  A    between atoms: _235  and  _238
REMARK   94  A    between atoms: _238  and  _239
REMARK   95  A    between atoms: _244  and  _246
REMARK   96  A    between atoms: _246  and  _247
REMARK   97  A    between atoms: _246  and  _249
REMARK   98  A    between atoms: _249  and  _250
REMARK   99  A    between atoms: _256  and  _258
REMARK  100  A    between atoms: _258  and  _259
REMARK  101  A    between atoms: _261  and  _263
REMARK  102  A    between atoms: _263  and  _264
REMARK  103  A    between atoms: _263  and  _266
REMARK  104  A    between atoms: _269  and  _271
REMARK  105  A    between atoms: _271  and  _272
REMARK  106  A    between atoms: _271  and  _274
REMARK  107  A    between atoms: _274  and  _275
REMARK  108  A    between atoms: _278  and  _280
REMARK  109  A    between atoms: _280  and  _281
REMARK  110  A    between atoms: _280  and  _283
REMARK  111  A    between atoms: _286  and  _288
REMARK  112  A    between atoms: _288  and  _289
REMARK  113  A    between atoms: _288  and  _291
REMARK  114  A    between atoms: _294  and  _296
REMARK  115  A    between atoms: _296  and  _297
REMARK  116  A    between atoms: _296  and  _299
REMARK  117  A    between atoms: _299  and  _300
REMARK  118  A    between atoms: _303  and  _305
REMARK  119  A    between atoms: _305  and  _306
REMARK  120  A    between atoms: _305  and  _308
REMARK  121  A    between atoms: _311  and  _313
REMARK  122  A    between atoms: _313  and  _314
REMARK  123  A    between atoms: _313  and  _316
REMARK  124  A    between atoms: _316  and  _317
REMARK  125  A    between atoms: _323  and  _325
REMARK  126  A    between atoms: _325  and  _326
REMARK  127  A    between atoms: _325  and  _328
REMARK  128  A    between atoms: _328  and  _329
REMARK  129  A    between atoms: _335  and  _337
REMARK  130  A    between atoms: _337  and  _338
REMARK  131  A    between atoms: _340  and  _342
REMARK  132  A    between atoms: _342  and  _343
REMARK  133  A    between atoms: _342  and  _345
REMARK  134  A    between atoms: _345  and  _346
REMARK  135  A    between atoms: _346  and  _347
REMARK  136  A    between atoms: _350  and  _352
REMARK  137  A    between atoms: _352  and  _353
REMARK  138  A    between atoms: _352  and  _355
REMARK  139  A    between atoms: _355  and  _356
REMARK  140  A    between atoms: _356  and  _357
REMARK  141  A    between atoms: _357  and  _358
REMARK  142  A    between atoms: _358  and  _359
REMARK  143  A    between atoms: _363  and  _365
REMARK  144  A    between atoms: _365  and  _366
REMARK  145  A    between atoms: _365  and  _368
REMARK  146  A    between atoms: _368  and  _369
REMARK  147  A    between atoms: _372  and  _374
REMARK  148  A    between atoms: _374  and  _375
REMARK  149  A    between atoms: _374  and  _377
REMARK  150  A    between atoms: _377  and  _378
REMARK  151  A    between atoms: _383  and  _384
REMARK  152  A    between atoms: _386  and  _388
REMARK  153  A    between atoms: _388  and  _389
REMARK  154  A    between atoms: _388  and  _391
REMARK  155  A    between atoms: _391  and  _392
REMARK  156  A    between atoms: _392  and  _393
REMARK  157  A    between atoms: _398  and  _400
REMARK  158  A    between atoms: _400  and  _401
REMARK  159  A    between atoms: _400  and  _403
REMARK  160  A    between atoms: _403  and  _404
REMARK  161  A    between atoms: _407  and  _409
REMARK  162  A    between atoms: _409  and  _410
REMARK  163  A    between atoms: _409  and  _412
REMARK  164  A    between atoms: _412  and  _413
REMARK  165  A    between atoms: _416  and  _418
REMARK  166  A    between atoms: _418  and  _419
REMARK  167  A    between atoms: _418  and  _421
REMARK  168  A    between atoms: _424  and  _426
REMARK  169  A    between atoms: _426  and  _427
REMARK  170  A    between atoms: _429  and  _431
REMARK  171  A    between atoms: _431  and  _432
REMARK  172  A    between atoms: _431  and  _434
REMARK  173  A    between atoms: _438  and  _439
REMARK  174  A    between atoms: _444  and  _446
REMARK  175  A    between atoms: _446  and  _447
REMARK  176  A    between atoms: _446  and  _449
REMARK  177  A    between atoms: _449  and  _450
REMARK  178  A    between atoms: _453  and  _455
REMARK  179  A    between atoms: _455  and  _456
REMARK  180  A    between atoms: _455  and  _458
REMARK  181  A    between atoms: _461  and  _463
REMARK  182  A    between atoms: _463  and  _464
REMARK  183  A    between atoms: _463  and  _466
REMARK  184  A    between atoms: _466  and  _467
REMARK  185  A    between atoms: _467  and  _468
REMARK  186  A    between atoms: _468  and  _469
REMARK  187  A    between atoms: _478  and  _480
REMARK  188  A    between atoms: _480  and  _481
REMARK  189  A    between atoms: _480  and  _483
REMARK  190  A    between atoms: _483  and  _484
REMARK  191  A    between atoms: _484  and  _485
REMARK  192  A    between atoms: _488  and  _490
REMARK  193  A    between atoms: _490  and  _491
REMARK  194  A    between atoms: _490  and  _493
REMARK  195  A    between atoms: _493  and  _494
REMARK  196  A    between atoms: _497  and  _499
REMARK  197  A    between atoms: _499  and  _500
REMARK  198  A    between atoms: _503  and  _505
REMARK  199  A    between atoms: _505  and  _506
REMARK  200  A    between atoms: _505  and  _508
REMARK  201  A    between atoms: _508  and  _509
REMARK  202  A    between atoms: _509  and  _510
REMARK  203  A    between atoms: _512  and  _514
REMARK  204  A    between atoms: _514  and  _515
REMARK  205  A    between atoms: _514  and  _517
REMARK  206  A    between atoms: _517  and  _518
REMARK  207  A    between atoms: _520  and  _522
REMARK  208  A    between atoms: _522  and  _523
REMARK  209  A    between atoms: _522  and  _525
REMARK  210  A    between atoms: _525  and  _526
REMARK  211  A    between atoms: _528  and  _530
REMARK  212  A    between atoms: _530  and  _531
REMARK  213  A    between atoms: _530  and  _533
REMARK  214  A    between atoms: _533  and  _534
REMARK  215  A    between atoms: _534  and  _535
REMARK  216  A    between atoms: _535  and  _536
REMARK  217  A    between atoms: _545  and  _547
REMARK  218  A    between atoms: _547  and  _548
REMARK  219  A    between atoms: _547  and  _550
REMARK  220  A    between atoms: _550  and  _551
REMARK  221  A    between atoms: _556  and  _558
REMARK  222  A    between atoms: _558  and  _559
REMARK  223  A    between atoms: _558  and  _561
REMARK  224  A    between atoms: _561  and  _562
REMARK  225  A    between atoms: _565  and  _567
REMARK  226  A    between atoms: _567  and  _568
REMARK  227  A    between atoms: _567  and  _570
REMARK  228  A    between atoms: _570  and  _571
REMARK                            x       y       z     vdW  Elec       q    Type
REMARK                         _______ _______ _______ _____ _____    ______ ____
ROOT
ATOM      1  O   HOH     1      18.935  19.102   6.502  0.00  0.00    +0.000 OA
ENDROOT
TORSDOF 0
REMARK  Name = ../refined-set-2016/3coz/3coz_pocket.pdb
REMARK  228 active torsions:
REMARK  status: ('A' for Active; 'I' for Inactive)
REMARK    1  A    between atoms: _1  and  _3
REMARK    2  A    between atoms: _3  and  _4
REMARK    3  A    between atoms: _3  and  _6
REMARK    4  A    between atoms: _6  and  _7
REMARK    5  A    between atoms: _10  and  _12
REMARK    6  A    between atoms: _12  and  _13
REMARK    7  A    between atoms: _12  and  _15
REMARK    8  A    between atoms: _19  and  _20
REMARK    9  A    between atoms: _25  and  _27
REMARK   10  A    between atoms: _27  and  _28
REMARK   11  A    between atoms: _27  and  _30
REMARK   12  A    between atoms: _30  and  _31
REMARK   13  A    between atoms: _34  and  _36
REMARK   14  A    between atoms: _36  and  _37
REMARK   15  A    between atoms: _36  and  _39
REMARK   16  A    between atoms: _39  and  _40
REMARK   17  A    between atoms: _40  and  _41
REMARK   18  A    between atoms: _43  and  _45
REMARK   19  A    between atoms: _45  and  _46
REMARK   20  A    between atoms: _48  and  _50
REMARK   21  A    between atoms: _50  and  _51
REMARK   22  A    between atoms: _54  and  _56
REMARK   23  A    between atoms: _56  and  _57
REMARK   24  A    between atoms: _56  and  _59
REMARK   25  A    between atoms: _59  and  _60
REMARK   26  A    between atoms: _63  and  _65
REMARK   27  A    between atoms: _65  and  _66
REMARK   28  A    between atoms: _65  and  _68
REMARK   29  A    between atoms: _68  and  _69
REMARK   30  A    between atoms: _74  and  _76
REMARK   31  A    between atoms: _76  and  _77
REMARK   32  A    between atoms: _76  and  _79
REMARK   33  A    between atoms: _79  and  _80
REMARK   34  A    between atoms: _80  and  _81
REMARK   35  A    between atoms: _84  and  _86
REMARK   36  A    between atoms: _86  and  _87
REMARK   37  A    between atoms: _89  and  _91
REMARK   38  A    between atoms: _91  and  _92
REMARK   39  A    between atoms: _91  and  _94
REMARK   40  A    between atoms: _94  and  _95
REMARK   41  A    between atoms: _100  and  _102
REMARK   42  A    between atoms: _102  and  _103
REMARK   43  A    between atoms: _102  and  _105
REMARK   44  A    between atoms: _105  and  _106
REMARK   45  A    between atoms: _109  and  _111
REMARK   46  A    between atoms: _111  and  _112
REMARK   47  A    between atoms: _115  and  _117
REMARK   48  A    between atoms: _117  and  _118
REMARK   49  A    between atoms: _117  and  _120
REMARK   50  A    between atoms: _120  and  _121
REMARK   51  A    between atoms: _124  and  _126
REMARK   52  A    between atoms: _126  and  _127
REMARK   53  A    between atoms: _126  and  _129
REMARK   54  A    between atoms: _132  and  _134
REMARK   55  A    between atoms: _134  and  _135
REMARK   56  A    between atoms: _134  and  _137
REMARK   57  A    between atoms: _140  and  _142
REMARK   58  A    between atoms: _142  and  _143
REMARK   59  A    between atoms: _142  and  _145
REMARK   60  A    between atoms: _145  and  _146
REMARK   61  A    between atoms: _148  and  _150
REMARK   62  A    between atoms: _150  and  _151
REMARK   63  A    between atoms: _150  and  _153
REMARK   64  A    between atoms: _153  and  _154
REMARK   65  A    between atoms: _157  and  _159
REMARK   66  A    between atoms: _159  and  _160
REMARK   67  A    between atoms: _159  and  _162
REMARK   68  A    between atoms: _162  and  _163
REMARK   69  A    between atoms: _169  and  _171
REMARK   70  A    between atoms: _171  and  _172
REMARK   71  A    between atoms: _171  and  _174
REMARK   72  A    between atoms: _177  and  _179
REMARK   73  A    between atoms: _179  and  _180
REMARK   74  A    between atoms: _179  and  _182
REMARK   75  A    between atoms: _182  and  _183
REMARK   76  A    between atoms: _188  and  _190
REMARK   77  A    between atoms: _190  and  _191
REMARK   78  A    between atoms: _190  and  _193
REMARK   79  A    between atoms: _193  and  _194
REMARK   80  A    between atoms: _194  and  _195
REMARK   81  A    between atoms: _200  and  _202
REMARK   82  A    between atoms: _202  and  _203
REMARK   83  A    between atoms: _202  and  _205
REMARK   84  A    between atoms: _205  and  _206
REMARK   85  A    between atoms: _212  and  _214
REMARK   86  A    between atoms: _214  and  _215
REMARK   87  A    between atoms: _214  and  _217
REMARK   88  A    between atoms: _217  and  _218
REMARK   89  A    between atoms: _223  and  _224
REMARK   90  A    between atoms: _227  and  _228
REMARK   91  A    between atoms: _233  and  _235
REMARK   92  A    between atoms: _235  and  _236
REMARK   93  A    between atoms: _235  and  _238
REMARK   94  A    between atoms: _238  and  _239
REMARK   95  A    between atoms: _244  and  _246
REMARK   96  A    between atoms: _246  and  _247
REMARK   97  A    between atoms: _246  and  _249
REMARK   98  A    between atoms: _249  and  _250
REMARK   99  A    between atoms: _256  and  _258
REMARK  100  A    between atoms: _258  and  _259
REMARK  101  A    between atoms: _261  and  _263
REMARK  102  A    between atoms: _263  and  _264
REMARK  103  A    between atoms: _263  and  _266
REMARK  104  A    between atoms: _269  and  _271
REMARK  105  A    between atoms: _271  and  _272
REMARK  106  A    between atoms: _271  and  _274
REMARK  107  A    between atoms: _274  and  _275
REMARK  108  A    between atoms: _278  and  _280
REMARK  109  A    between atoms: _280  and  _281
REMARK  110  A    between atoms: _280  and  _283
REMARK  111  A    between atoms: _286  and  _288
REMARK  112  A    between atoms: _288  and  _289
REMARK  113  A    between atoms: _288  and  _291
REMARK  114  A    between atoms: _294  and  _296
REMARK  115  A    between atoms: _296  and  _297
REMARK  116  A    between atoms: _296  and  _299
REMARK  117  A    between atoms: _299  and  _300
REMARK  118  A    between atoms: _303  and  _305
REMARK  119  A    between atoms: _305  and  _306
REMARK  120  A    between atoms: _305  and  _308
REMARK  121  A    between atoms: _311  and  _313
REMARK  122  A    between atoms: _313  and  _314
REMARK  123  A    between atoms: _313  and  _316
REMARK  124  A    between atoms: _316  and  _317
REMARK  125  A    between atoms: _323  and  _325
REMARK  126  A    between atoms: _325  and  _326
REMARK  127  A    between atoms: _325  and  _328
REMARK  128  A    between atoms: _328  and  _329
REMARK  129  A    between atoms: _335  and  _337
REMARK  130  A    between atoms: _337  and  _338
REMARK  131  A    between atoms: _340  and  _342
REMARK  132  A    between atoms: _342  and  _343
REMARK  133  A    between atoms: _342  and  _345
REMARK  134  A    between atoms: _345  and  _346
REMARK  135  A    between atoms: _346  and  _347
REMARK  136  A    between atoms: _350  and  _352
REMARK  137  A    between atoms: _352  and  _353
REMARK  138  A    between atoms: _352  and  _355
REMARK  139  A    between atoms: _355  and  _356
REMARK  140  A    between atoms: _356  and  _357
REMARK  141  A    between atoms: _357  and  _358
REMARK  142  A    between atoms: _358  and  _359
REMARK  143  A    between atoms: _363  and  _365
REMARK  144  A    between atoms: _365  and  _366
REMARK  145  A    between atoms: _365  and  _368
REMARK  146  A    between atoms: _368  and  _369
REMARK  147  A    between atoms: _372  and  _374
REMARK  148  A    between atoms: _374  and  _375
REMARK  149  A    between atoms: _374  and  _377
REMARK  150  A    between atoms: _377  and  _378
REMARK  151  A    between atoms: _383  and  _384
REMARK  152  A    between atoms: _386  and  _388
REMARK  153  A    between atoms: _388  and  _389
REMARK  154  A    between atoms: _388  and  _391
REMARK  155  A    between atoms: _391  and  _392
REMARK  156  A    between atoms: _392  and  _393
REMARK  157  A    between atoms: _398  and  _400
REMARK  158  A    between atoms: _400  and  _401
REMARK  159  A    between atoms: _400  and  _403
REMARK  160  A    between atoms: _403  and  _404
REMARK  161  A    between atoms: _407  and  _409
REMARK  162  A    between atoms: _409  and  _410
REMARK  163  A    between atoms: _409  and  _412
REMARK  164  A    between atoms: _412  and  _413
REMARK  165  A    between atoms: _416  and  _418
REMARK  166  A    between atoms: _418  and  _419
REMARK  167  A    between atoms: _418  and  _421
REMARK  168  A    between atoms: _424  and  _426
REMARK  169  A    between atoms: _426  and  _427
REMARK  170  A    between atoms: _429  and  _431
REMARK  171  A    between atoms: _431  and  _432
REMARK  172  A    between atoms: _431  and  _434
REMARK  173  A    between atoms: _438  and  _439
REMARK  174  A    between atoms: _444  and  _446
REMARK  175  A    between atoms: _446  and  _447
REMARK  176  A    between atoms: _446  and  _449
REMARK  177  A    between atoms: _449  and  _450
REMARK  178  A    between atoms: _453  and  _455
REMARK  179  A    between atoms: _455  and  _456
REMARK  180  A    between atoms: _455  and  _458
REMARK  181  A    between atoms: _461  and  _463
REMARK  182  A    between atoms: _463  and  _464
REMARK  183  A    between atoms: _463  and  _466
REMARK  184  A    between atoms: _466  and  _467
REMARK  185  A    between atoms: _467  and  _468
REMARK  186  A    between atoms: _468  and  _469
REMARK  187  A    between atoms: _478  and  _480
REMARK  188  A    between atoms: _480  and  _481
REMARK  189  A    between atoms: _480  and  _483
REMARK  190  A    between atoms: _483  and  _484
REMARK  191  A    between atoms: _484  and  _485
REMARK  192  A    between atoms: _488  and  _490
REMARK  193  A    between atoms: _490  and  _491
REMARK  194  A    between atoms: _490  and  _493
REMARK  195  A    between atoms: _493  and  _494
REMARK  196  A    between atoms: _497  and  _499
REMARK  197  A    between atoms: _499  and  _500
REMARK  198  A    between atoms: _503  and  _505
REMARK  199  A    between atoms: _505  and  _506
REMARK  200  A    between atoms: _505  and  _508
REMARK  201  A    between atoms: _508  and  _509
REMARK  202  A    between atoms: _509  and  _510
REMARK  203  A    between atoms: _512  and  _514
REMARK  204  A    between atoms: _514  and  _515
REMARK  205  A    between atoms: _514  and  _517
REMARK  206  A    between atoms: _517  and  _518
REMARK  207  A    between atoms: _520  and  _522
REMARK  208  A    between atoms: _522  and  _523
REMARK  209  A    between atoms: _522  and  _525
REMARK  210  A    between atoms: _525  and  _526
REMARK  211  A    between atoms: _528  and  _530
REMARK  212  A    between atoms: _530  and  _531
REMARK  213  A    between atoms: _530  and  _533
REMARK  214  A    between atoms: _533  and  _534
REMARK  215  A    between atoms: _534  and  _535
REMARK  216  A    between atoms: _535  and  _536
REMARK  217  A    between atoms: _545  and  _547
REMARK  218  A    between atoms: _547  and  _548
REMARK  219  A    between atoms: _547  and  _550
REMARK  220  A    between atoms: _550  and  _551
REMARK  221  A    between atoms: _556  and  _558
REMARK  222  A    between atoms: _558  and  _559
REMARK  223  A    between atoms: _558  and  _561
REMARK  224  A    between atoms: _561  and  _562
REMARK  225  A    between atoms: _565  and  _567
REMARK  226  A    between atoms: _567  and  _568
REMARK  227  A    between atoms: _567  and  _570
REMARK  228  A    between atoms: _570  and  _571
REMARK                            x       y       z     vdW  Elec       q    Type
REMARK                         _______ _______ _______ _____ _____    ______ ____
ROOT
ATOM      1  O   HOH     1      12.776   3.478  -8.514  0.00  0.00    +0.000 OA
ENDROOT
TORSDOF 0
REMARK  Name = ../refined-set-2016/3coz/3coz_pocket.pdb
REMARK  228 active torsions:
REMARK  status: ('A' for Active; 'I' for Inactive)
REMARK    1  A    between atoms: _1  and  _3
REMARK    2  A    between atoms: _3  and  _4
REMARK    3  A    between atoms: _3  and  _6
REMARK    4  A    between atoms: _6  and  _7
REMARK    5  A    between atoms: _10  and  _12
REMARK    6  A    between atoms: _12  and  _13
REMARK    7  A    between atoms: _12  and  _15
REMARK    8  A    between atoms: _19  and  _20
REMARK    9  A    between atoms: _25  and  _27
REMARK   10  A    between atoms: _27  and  _28
REMARK   11  A    between atoms: _27  and  _30
REMARK   12  A    between atoms: _30  and  _31
REMARK   13  A    between atoms: _34  and  _36
REMARK   14  A    between atoms: _36  and  _37
REMARK   15  A    between atoms: _36  and  _39
REMARK   16  A    between atoms: _39  and  _40
REMARK   17  A    between atoms: _40  and  _41
REMARK   18  A    between atoms: _43  and  _45
REMARK   19  A    between atoms: _45  and  _46
REMARK   20  A    between atoms: _48  and  _50
REMARK   21  A    between atoms: _50  and  _51
REMARK   22  A    between atoms: _54  and  _56
REMARK   23  A    between atoms: _56  and  _57
REMARK   24  A    between atoms: _56  and  _59
REMARK   25  A    between atoms: _59  and  _60
REMARK   26  A    between atoms: _63  and  _65
REMARK   27  A    between atoms: _65  and  _66
REMARK   28  A    between atoms: _65  and  _68
REMARK   29  A    between atoms: _68  and  _69
REMARK   30  A    between atoms: _74  and  _76
REMARK   31  A    between atoms: _76  and  _77
REMARK   32  A    between atoms: _76  and  _79
REMARK   33  A    between atoms: _79  and  _80
REMARK   34  A    between atoms: _80  and  _81
REMARK   35  A    between atoms: _84  and  _86
REMARK   36  A    between atoms: _86  and  _87
REMARK   37  A    between atoms: _89  and  _91
REMARK   38  A    between atoms: _91  and  _92
REMARK   39  A    between atoms: _91  and  _94
REMARK   40  A    between atoms: _94  and  _95
REMARK   41  A    between atoms: _100  and  _102
REMARK   42  A    between atoms: _102  and  _103
REMARK   43  A    between atoms: _102  and  _105
REMARK   44  A    between atoms: _105  and  _106
REMARK   45  A    between atoms: _109  and  _111
REMARK   46  A    between atoms: _111  and  _112
REMARK   47  A    between atoms: _115  and  _117
REMARK   48  A    between atoms: _117  and  _118
REMARK   49  A    between atoms: _117  and  _120
REMARK   50  A    between atoms: _120  and  _121
REMARK   51  A    between atoms: _124  and  _126
REMARK   52  A    between atoms: _126  and  _127
REMARK   53  A    between atoms: _126  and  _129
REMARK   54  A    between atoms: _132  and  _134
REMARK   55  A    between atoms: _134  and  _135
REMARK   56  A    between atoms: _134  and  _137
REMARK   57  A    between atoms: _140  and  _142
REMARK   58  A    between atoms: _142  and  _143
REMARK   59  A    between atoms: _142  and  _145
REMARK   60  A    between atoms: _145  and  _146
REMARK   61  A    between atoms: _148  and  _150
REMARK   62  A    between atoms: _150  and  _151
REMARK   63  A    between atoms: _150  and  _153
REMARK   64  A    between atoms: _153  and  _154
REMARK   65  A    between atoms: _157  and  _159
REMARK   66  A    between atoms: _159  and  _160
REMARK   67  A    between atoms: _159  and  _162
REMARK   68  A    between atoms: _162  and  _163
REMARK   69  A    between atoms: _169  and  _171
REMARK   70  A    between atoms: _171  and  _172
REMARK   71  A    between atoms: _171  and  _174
REMARK   72  A    between atoms: _177  and  _179
REMARK   73  A    between atoms: _179  and  _180
REMARK   74  A    between atoms: _179  and  _182
REMARK   75  A    between atoms: _182  and  _183
REMARK   76  A    between atoms: _188  and  _190
REMARK   77  A    between atoms: _190  and  _191
REMARK   78  A    between atoms: _190  and  _193
REMARK   79  A    between atoms: _193  and  _194
REMARK   80  A    between atoms: _194  and  _195
REMARK   81  A    between atoms: _200  and  _202
REMARK   82  A    between atoms: _202  and  _203
REMARK   83  A    between atoms: _202  and  _205
REMARK   84  A    between atoms: _205  and  _206
REMARK   85  A    between atoms: _212  and  _214
REMARK   86  A    between atoms: _214  and  _215
REMARK   87  A    between atoms: _214  and  _217
REMARK   88  A    between atoms: _217  and  _218
REMARK   89  A    between atoms: _223  and  _224
REMARK   90  A    between atoms: _227  and  _228
REMARK   91  A    between atoms: _233  and  _235
REMARK   92  A    between atoms: _235  and  _236
REMARK   93  A    between atoms: _235  and  _238
REMARK   94  A    between atoms: _238  and  _239
REMARK   95  A    between atoms: _244  and  _246
REMARK   96  A    between atoms: _246  and  _247
REMARK   97  A    between atoms: _246  and  _249
REMARK   98  A    between atoms: _249  and  _250
REMARK   99  A    between atoms: _256  and  _258
REMARK  100  A    between atoms: _258  and  _259
REMARK  101  A    between atoms: _261  and  _263
REMARK  102  A    between atoms: _263  and  _264
REMARK  103  A    between atoms: _263  and  _266
REMARK  104  A    between atoms: _269  and  _271
REMARK  105  A    between atoms: _271  and  _272
REMARK  106  A    between atoms: _271  and  _274
REMARK  107  A    between atoms: _274  and  _275
REMARK  108  A    between atoms: _278  and  _280
REMARK  109  A    between atoms: _280  and  _281
REMARK  110  A    between atoms: _280  and  _283
REMARK  111  A    between atoms: _286  and  _288
REMARK  112  A    between atoms: _288  and  _289
REMARK  113  A    between atoms: _288  and  _291
REMARK  114  A    between atoms: _294  and  _296
REMARK  115  A    between atoms: _296  and  _297
REMARK  116  A    between atoms: _296  and  _299
REMARK  117  A    between atoms: _299  and  _300
REMARK  118  A    between atoms: _303  and  _305
REMARK  119  A    between atoms: _305  and  _306
REMARK  120  A    between atoms: _305  and  _308
REMARK  121  A    between atoms: _311  and  _313
REMARK  122  A    between atoms: _313  and  _314
REMARK  123  A    between atoms: _313  and  _316
REMARK  124  A    between atoms: _316  and  _317
REMARK  125  A    between atoms: _323  and  _325
REMARK  126  A    between atoms: _325  and  _326
REMARK  127  A    between atoms: _325  and  _328
REMARK  128  A    between atoms: _328  and  _329
REMARK  129  A    between atoms: _335  and  _337
REMARK  130  A    between atoms: _337  and  _338
REMARK  131  A    between atoms: _340  and  _342
REMARK  132  A    between atoms: _342  and  _343
REMARK  133  A    between atoms: _342  and  _345
REMARK  134  A    between atoms: _345  and  _346
REMARK  135  A    between atoms: _346  and  _347
REMARK  136  A    between atoms: _350  and  _352
REMARK  137  A    between atoms: _352  and  _353
REMARK  138  A    between atoms: _352  and  _355
REMARK  139  A    between atoms: _355  and  _356
REMARK  140  A    between atoms: _356  and  _357
REMARK  141  A    between atoms: _357  and  _358
REMARK  142  A    between atoms: _358  and  _359
REMARK  143  A    between atoms: _363  and  _365
REMARK  144  A    between atoms: _365  and  _366
REMARK  145  A    between atoms: _365  and  _368
REMARK  146  A    between atoms: _368  and  _369
REMARK  147  A    between atoms: _372  and  _374
REMARK  148  A    between atoms: _374  and  _375
REMARK  149  A    between atoms: _374  and  _377
REMARK  150  A    between atoms: _377  and  _378
REMARK  151  A    between atoms: _383  and  _384
REMARK  152  A    between atoms: _386  and  _388
REMARK  153  A    between atoms: _388  and  _389
REMARK  154  A    between atoms: _388  and  _391
REMARK  155  A    between atoms: _391  and  _392
REMARK  156  A    between atoms: _392  and  _393
REMARK  157  A    between atoms: _398  and  _400
REMARK  158  A    between atoms: _400  and  _401
REMARK  159  A    between atoms: _400  and  _403
REMARK  160  A    between atoms: _403  and  _404
REMARK  161  A    between atoms: _407  and  _409
REMARK  162  A    between atoms: _409  and  _410
REMARK  163  A    between atoms: _409  and  _412
REMARK  164  A    between atoms: _412  and  _413
REMARK  165  A    between atoms: _416  and  _418
REMARK  166  A    between atoms: _418  and  _419
REMARK  167  A    between atoms: _418  and  _421
REMARK  168  A    between atoms: _424  and  _426
REMARK  169  A    between atoms: _426  and  _427
REMARK  170  A    between atoms: _429  and  _431
REMARK  171  A    between atoms: _431  and  _432
REMARK  172  A    between atoms: _431  and  _434
REMARK  173  A    between atoms: _438  and  _439
REMARK  174  A    between atoms: _444  and  _446
REMARK  175  A    between atoms: _446  and  _447
REMARK  176  A    between atoms: _446  and  _449
REMARK  177  A    between atoms: _449  and  _450
REMARK  178  A    between atoms: _453  and  _455
REMARK  179  A    between atoms: _455  and  _456
REMARK  180  A    between atoms: _455  and  _458
REMARK  181  A    between atoms: _461  and  _463
REMARK  182  A    between atoms: _463  and  _464
REMARK  183  A    between atoms: _463  and  _466
REMARK  184  A    between atoms: _466  and  _467
REMARK  185  A    between atoms: _467  and  _468
REMARK  186  A    between atoms: _468  and  _469
REMARK  187  A    between atoms: _478  and  _480
REMARK  188  A    between atoms: _480  and  _481
REMARK  189  A    between atoms: _480  and  _483
REMARK  190  A    between atoms: _483  and  _484
REMARK  191  A    between atoms: _484  and  _485
REMARK  192  A    between atoms: _488  and  _490
REMARK  193  A    between atoms: _490  and  _491
REMARK  194  A    between atoms: _490  and  _493
REMARK  195  A    between atoms: _493  and  _494
REMARK  196  A    between atoms: _497  and  _499
REMARK  197  A    between atoms: _499  and  _500
REMARK  198  A    between atoms: _503  and  _505
REMARK  199  A    between atoms: _505  and  _506
REMARK  200  A    between atoms: _505  and  _508
REMARK  201  A    between atoms: _508  and  _509
REMARK  202  A    between atoms: _509  and  _510
REMARK  203  A    between atoms: _512  and  _514
REMARK  204  A    between atoms: _514  and  _515
REMARK  205  A    between atoms: _514  and  _517
REMARK  206  A    between atoms: _517  and  _518
REMARK  207  A    between atoms: _520  and  _522
REMARK  208  A    between atoms: _522  and  _523
REMARK  209  A    between atoms: _522  and  _525
REMARK  210  A    between atoms: _525  and  _526
REMARK  211  A    between atoms: _528  and  _530
REMARK  212  A    between atoms: _530  and  _531
REMARK  213  A    between atoms: _530  and  _533
REMARK  214  A    between atoms: _533  and  _534
REMARK  215  A    between atoms: _534  and  _535
REMARK  216  A    between atoms: _535  and  _536
REMARK  217  A    between atoms: _545  and  _547
REMARK  218  A    between atoms: _547  and  _548
REMARK  219  A    between atoms: _547  and  _550
REMARK  220  A    between atoms: _550  and  _551
REMARK  221  A    between atoms: _556  and  _558
REMARK  222  A    between atoms: _558  and  _559
REMARK  223  A    between atoms: _558  and  _561
REMARK  224  A    between atoms: _561  and  _562
REMARK  225  A    between atoms: _565  and  _567
REMARK  226  A    between atoms: _567  and  _568
REMARK  227  A    between atoms: _567  and  _570
REMARK  228  A    between atoms: _570  and  _571
REMARK                            x       y       z     vdW  Elec       q    Type
REMARK                         _______ _______ _______ _____ _____    ______ ____
ROOT
ATOM      1  O   HOH     1      13.605   5.548 -11.370  0.00  0.00    +0.000 OA
ENDROOT
TORSDOF 0
REMARK  Name = ../refined-set-2016/3coz/3coz_pocket.pdb
REMARK  228 active torsions:
REMARK  status: ('A' for Active; 'I' for Inactive)
REMARK    1  A    between atoms: _1  and  _3
REMARK    2  A    between atoms: _3  and  _4
REMARK    3  A    between atoms: _3  and  _6
REMARK    4  A    between atoms: _6  and  _7
REMARK    5  A    between atoms: _10  and  _12
REMARK    6  A    between atoms: _12  and  _13
REMARK    7  A    between atoms: _12  and  _15
REMARK    8  A    between atoms: _19  and  _20
REMARK    9  A    between atoms: _25  and  _27
REMARK   10  A    between atoms: _27  and  _28
REMARK   11  A    between atoms: _27  and  _30
REMARK   12  A    between atoms: _30  and  _31
REMARK   13  A    between atoms: _34  and  _36
REMARK   14  A    between atoms: _36  and  _37
REMARK   15  A    between atoms: _36  and  _39
REMARK   16  A    between atoms: _39  and  _40
REMARK   17  A    between atoms: _40  and  _41
REMARK   18  A    between atoms: _43  and  _45
REMARK   19  A    between atoms: _45  and  _46
REMARK   20  A    between atoms: _48  and  _50
REMARK   21  A    between atoms: _50  and  _51
REMARK   22  A    between atoms: _54  and  _56
REMARK   23  A    between atoms: _56  and  _57
REMARK   24  A    between atoms: _56  and  _59
REMARK   25  A    between atoms: _59  and  _60
REMARK   26  A    between atoms: _63  and  _65
REMARK   27  A    between atoms: _65  and  _66
REMARK   28  A    between atoms: _65  and  _68
REMARK   29  A    between atoms: _68  and  _69
REMARK   30  A    between atoms: _74  and  _76
REMARK   31  A    between atoms: _76  and  _77
REMARK   32  A    between atoms: _76  and  _79
REMARK   33  A    between atoms: _79  and  _80
REMARK   34  A    between atoms: _80  and  _81
REMARK   35  A    between atoms: _84  and  _86
REMARK   36  A    between atoms: _86  and  _87
REMARK   37  A    between atoms: _89  and  _91
REMARK   38  A    between atoms: _91  and  _92
REMARK   39  A    between atoms: _91  and  _94
REMARK   40  A    between atoms: _94  and  _95
REMARK   41  A    between atoms: _100  and  _102
REMARK   42  A    between atoms: _102  and  _103
REMARK   43  A    between atoms: _102  and  _105
REMARK   44  A    between atoms: _105  and  _106
REMARK   45  A    between atoms: _109  and  _111
REMARK   46  A    between atoms: _111  and  _112
REMARK   47  A    between atoms: _115  and  _117
REMARK   48  A    between atoms: _117  and  _118
REMARK   49  A    between atoms: _117  and  _120
REMARK   50  A    between atoms: _120  and  _121
REMARK   51  A    between atoms: _124  and  _126
REMARK   52  A    between atoms: _126  and  _127
REMARK   53  A    between atoms: _126  and  _129
REMARK   54  A    between atoms: _132  and  _134
REMARK   55  A    between atoms: _134  and  _135
REMARK   56  A    between atoms: _134  and  _137
REMARK   57  A    between atoms: _140  and  _142
REMARK   58  A    between atoms: _142  and  _143
REMARK   59  A    between atoms: _142  and  _145
REMARK   60  A    between atoms: _145  and  _146
REMARK   61  A    between atoms: _148  and  _150
REMARK   62  A    between atoms: _150  and  _151
REMARK   63  A    between atoms: _150  and  _153
REMARK   64  A    between atoms: _153  and  _154
REMARK   65  A    between atoms: _157  and  _159
REMARK   66  A    between atoms: _159  and  _160
REMARK   67  A    between atoms: _159  and  _162
REMARK   68  A    between atoms: _162  and  _163
REMARK   69  A    between atoms: _169  and  _171
REMARK   70  A    between atoms: _171  and  _172
REMARK   71  A    between atoms: _171  and  _174
REMARK   72  A    between atoms: _177  and  _179
REMARK   73  A    between atoms: _179  and  _180
REMARK   74  A    between atoms: _179  and  _182
REMARK   75  A    between atoms: _182  and  _183
REMARK   76  A    between atoms: _188  and  _190
REMARK   77  A    between atoms: _190  and  _191
REMARK   78  A    between atoms: _190  and  _193
REMARK   79  A    between atoms: _193  and  _194
REMARK   80  A    between atoms: _194  and  _195
REMARK   81  A    between atoms: _200  and  _202
REMARK   82  A    between atoms: _202  and  _203
REMARK   83  A    between atoms: _202  and  _205
REMARK   84  A    between atoms: _205  and  _206
REMARK   85  A    between atoms: _212  and  _214
REMARK   86  A    between atoms: _214  and  _215
REMARK   87  A    between atoms: _214  and  _217
REMARK   88  A    between atoms: _217  and  _218
REMARK   89  A    between atoms: _223  and  _224
REMARK   90  A    between atoms: _227  and  _228
REMARK   91  A    between atoms: _233  and  _235
REMARK   92  A    between atoms: _235  and  _236
REMARK   93  A    between atoms: _235  and  _238
REMARK   94  A    between atoms: _238  and  _239
REMARK   95  A    between atoms: _244  and  _246
REMARK   96  A    between atoms: _246  and  _247
REMARK   97  A    between atoms: _246  and  _249
REMARK   98  A    between atoms: _249  and  _250
REMARK   99  A    between atoms: _256  and  _258
REMARK  100  A    between atoms: _258  and  _259
REMARK  101  A    between atoms: _261  and  _263
REMARK  102  A    between atoms: _263  and  _264
REMARK  103  A    between atoms: _263  and  _266
REMARK  104  A    between atoms: _269  and  _271
REMARK  105  A    between atoms: _271  and  _272
REMARK  106  A    between atoms: _271  and  _274
REMARK  107  A    between atoms: _274  and  _275
REMARK  108  A    between atoms: _278  and  _280
REMARK  109  A    between atoms: _280  and  _281
REMARK  110  A    between atoms: _280  and  _283
REMARK  111  A    between atoms: _286  and  _288
REMARK  112  A    between atoms: _288  and  _289
REMARK  113  A    between atoms: _288  and  _291
REMARK  114  A    between atoms: _294  and  _296
REMARK  115  A    between atoms: _296  and  _297
REMARK  116  A    between atoms: _296  and  _299
REMARK  117  A    between atoms: _299  and  _300
REMARK  118  A    between atoms: _303  and  _305
REMARK  119  A    between atoms: _305  and  _306
REMARK  120  A    between atoms: _305  and  _308
REMARK  121  A    between atoms: _311  and  _313
REMARK  122  A    between atoms: _313  and  _314
REMARK  123  A    between atoms: _313  and  _316
REMARK  124  A    between atoms: _316  and  _317
REMARK  125  A    between atoms: _323  and  _325
REMARK  126  A    between atoms: _325  and  _326
REMARK  127  A    between atoms: _325  and  _328
REMARK  128  A    between atoms: _328  and  _329
REMARK  129  A    between atoms: _335  and  _337
REMARK  130  A    between atoms: _337  and  _338
REMARK  131  A    between atoms: _340  and  _342
REMARK  132  A    between atoms: _342  and  _343
REMARK  133  A    between atoms: _342  and  _345
REMARK  134  A    between atoms: _345  and  _346
REMARK  135  A    between atoms: _346  and  _347
REMARK  136  A    between atoms: _350  and  _352
REMARK  137  A    between atoms: _352  and  _353
REMARK  138  A    between atoms: _352  and  _355
REMARK  139  A    between atoms: _355  and  _356
REMARK  140  A    between atoms: _356  and  _357
REMARK  141  A    between atoms: _357  and  _358
REMARK  142  A    between atoms: _358  and  _359
REMARK  143  A    between atoms: _363  and  _365
REMARK  144  A    between atoms: _365  and  _366
REMARK  145  A    between atoms: _365  and  _368
REMARK  146  A    between atoms: _368  and  _369
REMARK  147  A    between atoms: _372  and  _374
REMARK  148  A    between atoms: _374  and  _375
REMARK  149  A    between atoms: _374  and  _377
REMARK  150  A    between atoms: _377  and  _378
REMARK  151  A    between atoms: _383  and  _384
REMARK  152  A    between atoms: _386  and  _388
REMARK  153  A    between atoms: _388  and  _389
REMARK  154  A    between atoms: _388  and  _391
REMARK  155  A    between atoms: _391  and  _392
REMARK  156  A    between atoms: _392  and  _393
REMARK  157  A    between atoms: _398  and  _400
REMARK  158  A    between atoms: _400  and  _401
REMARK  159  A    between atoms: _400  and  _403
REMARK  160  A    between atoms: _403  and  _404
REMARK  161  A    between atoms: _407  and  _409
REMARK  162  A    between atoms: _409  and  _410
REMARK  163  A    between atoms: _409  and  _412
REMARK  164  A    between atoms: _412  and  _413
REMARK  165  A    between atoms: _416  and  _418
REMARK  166  A    between atoms: _418  and  _419
REMARK  167  A    between atoms: _418  and  _421
REMARK  168  A    between atoms: _424  and  _426
REMARK  169  A    between atoms: _426  and  _427
REMARK  170  A    between atoms: _429  and  _431
REMARK  171  A    between atoms: _431  and  _432
REMARK  172  A    between atoms: _431  and  _434
REMARK  173  A    between atoms: _438  and  _439
REMARK  174  A    between atoms: _444  and  _446
REMARK  175  A    between atoms: _446  and  _447
REMARK  176  A    between atoms: _446  and  _449
REMARK  177  A    between atoms: _449  and  _450
REMARK  178  A    between atoms: _453  and  _455
REMARK  179  A    between atoms: _455  and  _456
REMARK  180  A    between atoms: _455  and  _458
REMARK  181  A    between atoms: _461  and  _463
REMARK  182  A    between atoms: _463  and  _464
REMARK  183  A    between atoms: _463  and  _466
REMARK  184  A    between atoms: _466  and  _467
REMARK  185  A    between atoms: _467  and  _468
REMARK  186  A    between atoms: _468  and  _469
REMARK  187  A    between atoms: _478  and  _480
REMARK  188  A    between atoms: _480  and  _481
REMARK  189  A    between atoms: _480  and  _483
REMARK  190  A    between atoms: _483  and  _484
REMARK  191  A    between atoms: _484  and  _485
REMARK  192  A    between atoms: _488  and  _490
REMARK  193  A    between atoms: _490  and  _491
REMARK  194  A    between atoms: _490  and  _493
REMARK  195  A    between atoms: _493  and  _494
REMARK  196  A    between atoms: _497  and  _499
REMARK  197  A    between atoms: _499  and  _500
REMARK  198  A    between atoms: _503  and  _505
REMARK  199  A    between atoms: _505  and  _506
REMARK  200  A    between atoms: _505  and  _508
REMARK  201  A    between atoms: _508  and  _509
REMARK  202  A    between atoms: _509  and  _510
REMARK  203  A    between atoms: _512  and  _514
REMARK  204  A    between atoms: _514  and  _515
REMARK  205  A    between atoms: _514  and  _517
REMARK  206  A    between atoms: _517  and  _518
REMARK  207  A    between atoms: _520  and  _522
REMARK  208  A    between atoms: _522  and  _523
REMARK  209  A    between atoms: _522  and  _525
REMARK  210  A    between atoms: _525  and  _526
REMARK  211  A    between atoms: _528  and  _530
REMARK  212  A    between atoms: _530  and  _531
REMARK  213  A    between atoms: _530  and  _533
REMARK  214  A    between atoms: _533  and  _534
REMARK  215  A    between atoms: _534  and  _535
REMARK  216  A    between atoms: _535  and  _536
REMARK  217  A    between atoms: _545  and  _547
REMARK  218  A    between atoms: _547  and  _548
REMARK  219  A    between atoms: _547  and  _550
REMARK  220  A    between atoms: _550  and  _551
REMARK  221  A    between atoms: _556  and  _558
REMARK  222  A    between atoms: _558  and  _559
REMARK  223  A    between atoms: _558  and  _561
REMARK  224  A    between atoms: _561  and  _562
REMARK  225  A    between atoms: _565  and  _567
REMARK  226  A    between atoms: _567  and  _568
REMARK  227  A    between atoms: _567  and  _570
REMARK  228  A    between atoms: _570  and  _571
REMARK                            x       y       z     vdW  Elec       q    Type
REMARK                         _______ _______ _______ _____ _____    ______ ____
ROOT
ATOM      1  O   HOH     1       8.981   9.288  -8.582  0.00  0.00    +0.000 OA
ENDROOT
TORSDOF 0
REMARK  Name = ../refined-set-2016/3coz/3coz_pocket.pdb
REMARK  228 active torsions:
REMARK  status: ('A' for Active; 'I' for Inactive)
REMARK    1  A    between atoms: _1  and  _3
REMARK    2  A    between atoms: _3  and  _4
REMARK    3  A    between atoms: _3  and  _6
REMARK    4  A    between atoms: _6  and  _7
REMARK    5  A    between atoms: _10  and  _12
REMARK    6  A    between atoms: _12  and  _13
REMARK    7  A    between atoms: _12  and  _15
REMARK    8  A    between atoms: _19  and  _20
REMARK    9  A    between atoms: _25  and  _27
REMARK   10  A    between atoms: _27  and  _28
REMARK   11  A    between atoms: _27  and  _30
REMARK   12  A    between atoms: _30  and  _31
REMARK   13  A    between atoms: _34  and  _36
REMARK   14  A    between atoms: _36  and  _37
REMARK   15  A    between atoms: _36  and  _39
REMARK   16  A    between atoms: _39  and  _40
REMARK   17  A    between atoms: _40  and  _41
REMARK   18  A    between atoms: _43  and  _45
REMARK   19  A    between atoms: _45  and  _46
REMARK   20  A    between atoms: _48  and  _50
REMARK   21  A    between atoms: _50  and  _51
REMARK   22  A    between atoms: _54  and  _56
REMARK   23  A    between atoms: _56  and  _57
REMARK   24  A    between atoms: _56  and  _59
REMARK   25  A    between atoms: _59  and  _60
REMARK   26  A    between atoms: _63  and  _65
REMARK   27  A    between atoms: _65  and  _66
REMARK   28  A    between atoms: _65  and  _68
REMARK   29  A    between atoms: _68  and  _69
REMARK   30  A    between atoms: _74  and  _76
REMARK   31  A    between atoms: _76  and  _77
REMARK   32  A    between atoms: _76  and  _79
REMARK   33  A    between atoms: _79  and  _80
REMARK   34  A    between atoms: _80  and  _81
REMARK   35  A    between atoms: _84  and  _86
REMARK   36  A    between atoms: _86  and  _87
REMARK   37  A    between atoms: _89  and  _91
REMARK   38  A    between atoms: _91  and  _92
REMARK   39  A    between atoms: _91  and  _94
REMARK   40  A    between atoms: _94  and  _95
REMARK   41  A    between atoms: _100  and  _102
REMARK   42  A    between atoms: _102  and  _103
REMARK   43  A    between atoms: _102  and  _105
REMARK   44  A    between atoms: _105  and  _106
REMARK   45  A    between atoms: _109  and  _111
REMARK   46  A    between atoms: _111  and  _112
REMARK   47  A    between atoms: _115  and  _117
REMARK   48  A    between atoms: _117  and  _118
REMARK   49  A    between atoms: _117  and  _120
REMARK   50  A    between atoms: _120  and  _121
REMARK   51  A    between atoms: _124  and  _126
REMARK   52  A    between atoms: _126  and  _127
REMARK   53  A    between atoms: _126  and  _129
REMARK   54  A    between atoms: _132  and  _134
REMARK   55  A    between atoms: _134  and  _135
REMARK   56  A    between atoms: _134  and  _137
REMARK   57  A    between atoms: _140  and  _142
REMARK   58  A    between atoms: _142  and  _143
REMARK   59  A    between atoms: _142  and  _145
REMARK   60  A    between atoms: _145  and  _146
REMARK   61  A    between atoms: _148  and  _150
REMARK   62  A    between atoms: _150  and  _151
REMARK   63  A    between atoms: _150  and  _153
REMARK   64  A    between atoms: _153  and  _154
REMARK   65  A    between atoms: _157  and  _159
REMARK   66  A    between atoms: _159  and  _160
REMARK   67  A    between atoms: _159  and  _162
REMARK   68  A    between atoms: _162  and  _163
REMARK   69  A    between atoms: _169  and  _171
REMARK   70  A    between atoms: _171  and  _172
REMARK   71  A    between atoms: _171  and  _174
REMARK   72  A    between atoms: _177  and  _179
REMARK   73  A    between atoms: _179  and  _180
REMARK   74  A    between atoms: _179  and  _182
REMARK   75  A    between atoms: _182  and  _183
REMARK   76  A    between atoms: _188  and  _190
REMARK   77  A    between atoms: _190  and  _191
REMARK   78  A    between atoms: _190  and  _193
REMARK   79  A    between atoms: _193  and  _194
REMARK   80  A    between atoms: _194  and  _195
REMARK   81  A    between atoms: _200  and  _202
REMARK   82  A    between atoms: _202  and  _203
REMARK   83  A    between atoms: _202  and  _205
REMARK   84  A    between atoms: _205  and  _206
REMARK   85  A    between atoms: _212  and  _214
REMARK   86  A    between atoms: _214  and  _215
REMARK   87  A    between atoms: _214  and  _217
REMARK   88  A    between atoms: _217  and  _218
REMARK   89  A    between atoms: _223  and  _224
REMARK   90  A    between atoms: _227  and  _228
REMARK   91  A    between atoms: _233  and  _235
REMARK   92  A    between atoms: _235  and  _236
REMARK   93  A    between atoms: _235  and  _238
REMARK   94  A    between atoms: _238  and  _239
REMARK   95  A    between atoms: _244  and  _246
REMARK   96  A    between atoms: _246  and  _247
REMARK   97  A    between atoms: _246  and  _249
REMARK   98  A    between atoms: _249  and  _250
REMARK   99  A    between atoms: _256  and  _258
REMARK  100  A    between atoms: _258  and  _259
REMARK  101  A    between atoms: _261  and  _263
REMARK  102  A    between atoms: _263  and  _264
REMARK  103  A    between atoms: _263  and  _266
REMARK  104  A    between atoms: _269  and  _271
REMARK  105  A    between atoms: _271  and  _272
REMARK  106  A    between atoms: _271  and  _274
REMARK  107  A    between atoms: _274  and  _275
REMARK  108  A    between atoms: _278  and  _280
REMARK  109  A    between atoms: _280  and  _281
REMARK  110  A    between atoms: _280  and  _283
REMARK  111  A    between atoms: _286  and  _288
REMARK  112  A    between atoms: _288  and  _289
REMARK  113  A    between atoms: _288  and  _291
REMARK  114  A    between atoms: _294  and  _296
REMARK  115  A    between atoms: _296  and  _297
REMARK  116  A    between atoms: _296  and  _299
REMARK  117  A    between atoms: _299  and  _300
REMARK  118  A    between atoms: _303  and  _305
REMARK  119  A    between atoms: _305  and  _306
REMARK  120  A    between atoms: _305  and  _308
REMARK  121  A    between atoms: _311  and  _313
REMARK  122  A    between atoms: _313  and  _314
REMARK  123  A    between atoms: _313  and  _316
REMARK  124  A    between atoms: _316  and  _317
REMARK  125  A    between atoms: _323  and  _325
REMARK  126  A    between atoms: _325  and  _326
REMARK  127  A    between atoms: _325  and  _328
REMARK  128  A    between atoms: _328  and  _329
REMARK  129  A    between atoms: _335  and  _337
REMARK  130  A    between atoms: _337  and  _338
REMARK  131  A    between atoms: _340  and  _342
REMARK  132  A    between atoms: _342  and  _343
REMARK  133  A    between atoms: _342  and  _345
REMARK  134  A    between atoms: _345  and  _346
REMARK  135  A    between atoms: _346  and  _347
REMARK  136  A    between atoms: _350  and  _352
REMARK  137  A    between atoms: _352  and  _353
REMARK  138  A    between atoms: _352  and  _355
REMARK  139  A    between atoms: _355  and  _356
REMARK  140  A    between atoms: _356  and  _357
REMARK  141  A    between atoms: _357  and  _358
REMARK  142  A    between atoms: _358  and  _359
REMARK  143  A    between atoms: _363  and  _365
REMARK  144  A    between atoms: _365  and  _366
REMARK  145  A    between atoms: _365  and  _368
REMARK  146  A    between atoms: _368  and  _369
REMARK  147  A    between atoms: _372  and  _374
REMARK  148  A    between atoms: _374  and  _375
REMARK  149  A    between atoms: _374  and  _377
REMARK  150  A    between atoms: _377  and  _378
REMARK  151  A    between atoms: _383  and  _384
REMARK  152  A    between atoms: _386  and  _388
REMARK  153  A    between atoms: _388  and  _389
REMARK  154  A    between atoms: _388  and  _391
REMARK  155  A    between atoms: _391  and  _392
REMARK  156  A    between atoms: _392  and  _393
REMARK  157  A    between atoms: _398  and  _400
REMARK  158  A    between atoms: _400  and  _401
REMARK  159  A    between atoms: _400  and  _403
REMARK  160  A    between atoms: _403  and  _404
REMARK  161  A    between atoms: _407  and  _409
REMARK  162  A    between atoms: _409  and  _410
REMARK  163  A    between atoms: _409  and  _412
REMARK  164  A    between atoms: _412  and  _413
REMARK  165  A    between atoms: _416  and  _418
REMARK  166  A    between atoms: _418  and  _419
REMARK  167  A    between atoms: _418  and  _421
REMARK  168  A    between atoms: _424  and  _426
REMARK  169  A    between atoms: _426  and  _427
REMARK  170  A    between atoms: _429  and  _431
REMARK  171  A    between atoms: _431  and  _432
REMARK  172  A    between atoms: _431  and  _434
REMARK  173  A    between atoms: _438  and  _439
REMARK  174  A    between atoms: _444  and  _446
REMARK  175  A    between atoms: _446  and  _447
REMARK  176  A    between atoms: _446  and  _449
REMARK  177  A    between atoms: _449  and  _450
REMARK  178  A    between atoms: _453  and  _455
REMARK  179  A    between atoms: _455  and  _456
REMARK  180  A    between atoms: _455  and  _458
REMARK  181  A    between atoms: _461  and  _463
REMARK  182  A    between atoms: _463  and  _464
REMARK  183  A    between atoms: _463  and  _466
REMARK  184  A    between atoms: _466  and  _467
REMARK  185  A    between atoms: _467  and  _468
REMARK  186  A    between atoms: _468  and  _469
REMARK  187  A    between atoms: _478  and  _480
REMARK  188  A    between atoms: _480  and  _481
REMARK  189  A    between atoms: _480  and  _483
REMARK  190  A    between atoms: _483  and  _484
REMARK  191  A    between atoms: _484  and  _485
REMARK  192  A    between atoms: _488  and  _490
REMARK  193  A    between atoms: _490  and  _491
REMARK  194  A    between atoms: _490  and  _493
REMARK  195  A    between atoms: _493  and  _494
REMARK  196  A    between atoms: _497  and  _499
REMARK  197  A    between atoms: _499  and  _500
REMARK  198  A    between atoms: _503  and  _505
REMARK  199  A    between atoms: _505  and  _506
REMARK  200  A    between atoms: _505  and  _508
REMARK  201  A    between atoms: _508  and  _509
REMARK  202  A    between atoms: _509  and  _510
REMARK  203  A    between atoms: _512  and  _514
REMARK  204  A    between atoms: _514  and  _515
REMARK  205  A    between atoms: _514  and  _517
REMARK  206  A    between atoms: _517  and  _518
REMARK  207  A    between atoms: _520  and  _522
REMARK  208  A    between atoms: _522  and  _523
REMARK  209  A    between atoms: _522  and  _525
REMARK  210  A    between atoms: _525  and  _526
REMARK  211  A    between atoms: _528  and  _530
REMARK  212  A    between atoms: _530  and  _531
REMARK  213  A    between atoms: _530  and  _533
REMARK  214  A    between atoms: _533  and  _534
REMARK  215  A    between atoms: _534  and  _535
REMARK  216  A    between atoms: _535  and  _536
REMARK  217  A    between atoms: _545  and  _547
REMARK  218  A    between atoms: _547  and  _548
REMARK  219  A    between atoms: _547  and  _550
REMARK  220  A    between atoms: _550  and  _551
REMARK  221  A    between atoms: _556  and  _558
REMARK  222  A    between atoms: _558  and  _559
REMARK  223  A    between atoms: _558  and  _561
REMARK  224  A    between atoms: _561  and  _562
REMARK  225  A    between atoms: _565  and  _567
REMARK  226  A    between atoms: _567  and  _568
REMARK  227  A    between atoms: _567  and  _570
REMARK  228  A    between atoms: _570  and  _571
REMARK                            x       y       z     vdW  Elec       q    Type
REMARK                         _______ _______ _______ _____ _____    ______ ____
ROOT
ATOM      1  O   HOH     1      14.253  12.032  10.862  0.00  0.00    +0.000 OA
ENDROOT
TORSDOF 0
REMARK  Name = ../refined-set-2016/3coz/3coz_pocket.pdb
REMARK  228 active torsions:
REMARK  status: ('A' for Active; 'I' for Inactive)
REMARK    1  A    between atoms: _1  and  _3
REMARK    2  A    between atoms: _3  and  _4
REMARK    3  A    between atoms: _3  and  _6
REMARK    4  A    between atoms: _6  and  _7
REMARK    5  A    between atoms: _10  and  _12
REMARK    6  A    between atoms: _12  and  _13
REMARK    7  A    between atoms: _12  and  _15
REMARK    8  A    between atoms: _19  and  _20
REMARK    9  A    between atoms: _25  and  _27
REMARK   10  A    between atoms: _27  and  _28
REMARK   11  A    between atoms: _27  and  _30
REMARK   12  A    between atoms: _30  and  _31
REMARK   13  A    between atoms: _34  and  _36
REMARK   14  A    between atoms: _36  and  _37
REMARK   15  A    between atoms: _36  and  _39
REMARK   16  A    between atoms: _39  and  _40
REMARK   17  A    between atoms: _40  and  _41
REMARK   18  A    between atoms: _43  and  _45
REMARK   19  A    between atoms: _45  and  _46
REMARK   20  A    between atoms: _48  and  _50
REMARK   21  A    between atoms: _50  and  _51
REMARK   22  A    between atoms: _54  and  _56
REMARK   23  A    between atoms: _56  and  _57
REMARK   24  A    between atoms: _56  and  _59
REMARK   25  A    between atoms: _59  and  _60
REMARK   26  A    between atoms: _63  and  _65
REMARK   27  A    between atoms: _65  and  _66
REMARK   28  A    between atoms: _65  and  _68
REMARK   29  A    between atoms: _68  and  _69
REMARK   30  A    between atoms: _74  and  _76
REMARK   31  A    between atoms: _76  and  _77
REMARK   32  A    between atoms: _76  and  _79
REMARK   33  A    between atoms: _79  and  _80
REMARK   34  A    between atoms: _80  and  _81
REMARK   35  A    between atoms: _84  and  _86
REMARK   36  A    between atoms: _86  and  _87
REMARK   37  A    between atoms: _89  and  _91
REMARK   38  A    between atoms: _91  and  _92
REMARK   39  A    between atoms: _91  and  _94
REMARK   40  A    between atoms: _94  and  _95
REMARK   41  A    between atoms: _100  and  _102
REMARK   42  A    between atoms: _102  and  _103
REMARK   43  A    between atoms: _102  and  _105
REMARK   44  A    between atoms: _105  and  _106
REMARK   45  A    between atoms: _109  and  _111
REMARK   46  A    between atoms: _111  and  _112
REMARK   47  A    between atoms: _115  and  _117
REMARK   48  A    between atoms: _117  and  _118
REMARK   49  A    between atoms: _117  and  _120
REMARK   50  A    between atoms: _120  and  _121
REMARK   51  A    between atoms: _124  and  _126
REMARK   52  A    between atoms: _126  and  _127
REMARK   53  A    between atoms: _126  and  _129
REMARK   54  A    between atoms: _132  and  _134
REMARK   55  A    between atoms: _134  and  _135
REMARK   56  A    between atoms: _134  and  _137
REMARK   57  A    between atoms: _140  and  _142
REMARK   58  A    between atoms: _142  and  _143
REMARK   59  A    between atoms: _142  and  _145
REMARK   60  A    between atoms: _145  and  _146
REMARK   61  A    between atoms: _148  and  _150
REMARK   62  A    between atoms: _150  and  _151
REMARK   63  A    between atoms: _150  and  _153
REMARK   64  A    between atoms: _153  and  _154
REMARK   65  A    between atoms: _157  and  _159
REMARK   66  A    between atoms: _159  and  _160
REMARK   67  A    between atoms: _159  and  _162
REMARK   68  A    between atoms: _162  and  _163
REMARK   69  A    between atoms: _169  and  _171
REMARK   70  A    between atoms: _171  and  _172
REMARK   71  A    between atoms: _171  and  _174
REMARK   72  A    between atoms: _177  and  _179
REMARK   73  A    between atoms: _179  and  _180
REMARK   74  A    between atoms: _179  and  _182
REMARK   75  A    between atoms: _182  and  _183
REMARK   76  A    between atoms: _188  and  _190
REMARK   77  A    between atoms: _190  and  _191
REMARK   78  A    between atoms: _190  and  _193
REMARK   79  A    between atoms: _193  and  _194
REMARK   80  A    between atoms: _194  and  _195
REMARK   81  A    between atoms: _200  and  _202
REMARK   82  A    between atoms: _202  and  _203
REMARK   83  A    between atoms: _202  and  _205
REMARK   84  A    between atoms: _205  and  _206
REMARK   85  A    between atoms: _212  and  _214
REMARK   86  A    between atoms: _214  and  _215
REMARK   87  A    between atoms: _214  and  _217
REMARK   88  A    between atoms: _217  and  _218
REMARK   89  A    between atoms: _223  and  _224
REMARK   90  A    between atoms: _227  and  _228
REMARK   91  A    between atoms: _233  and  _235
REMARK   92  A    between atoms: _235  and  _236
REMARK   93  A    between atoms: _235  and  _238
REMARK   94  A    between atoms: _238  and  _239
REMARK   95  A    between atoms: _244  and  _246
REMARK   96  A    between atoms: _246  and  _247
REMARK   97  A    between atoms: _246  and  _249
REMARK   98  A    between atoms: _249  and  _250
REMARK   99  A    between atoms: _256  and  _258
REMARK  100  A    between atoms: _258  and  _259
REMARK  101  A    between atoms: _261  and  _263
REMARK  102  A    between atoms: _263  and  _264
REMARK  103  A    between atoms: _263  and  _266
REMARK  104  A    between atoms: _269  and  _271
REMARK  105  A    between atoms: _271  and  _272
REMARK  106  A    between atoms: _271  and  _274
REMARK  107  A    between atoms: _274  and  _275
REMARK  108  A    between atoms: _278  and  _280
REMARK  109  A    between atoms: _280  and  _281
REMARK  110  A    between atoms: _280  and  _283
REMARK  111  A    between atoms: _286  and  _288
REMARK  112  A    between atoms: _288  and  _289
REMARK  113  A    between atoms: _288  and  _291
REMARK  114  A    between atoms: _294  and  _296
REMARK  115  A    between atoms: _296  and  _297
REMARK  116  A    between atoms: _296  and  _299
REMARK  117  A    between atoms: _299  and  _300
REMARK  118  A    between atoms: _303  and  _305
REMARK  119  A    between atoms: _305  and  _306
REMARK  120  A    between atoms: _305  and  _308
REMARK  121  A    between atoms: _311  and  _313
REMARK  122  A    between atoms: _313  and  _314
REMARK  123  A    between atoms: _313  and  _316
REMARK  124  A    between atoms: _316  and  _317
REMARK  125  A    between atoms: _323  and  _325
REMARK  126  A    between atoms: _325  and  _326
REMARK  127  A    between atoms: _325  and  _328
REMARK  128  A    between atoms: _328  and  _329
REMARK  129  A    between atoms: _335  and  _337
REMARK  130  A    between atoms: _337  and  _338
REMARK  131  A    between atoms: _340  and  _342
REMARK  132  A    between atoms: _342  and  _343
REMARK  133  A    between atoms: _342  and  _345
REMARK  134  A    between atoms: _345  and  _346
REMARK  135  A    between atoms: _346  and  _347
REMARK  136  A    between atoms: _350  and  _352
REMARK  137  A    between atoms: _352  and  _353
REMARK  138  A    between atoms: _352  and  _355
REMARK  139  A    between atoms: _355  and  _356
REMARK  140  A    between atoms: _356  and  _357
REMARK  141  A    between atoms: _357  and  _358
REMARK  142  A    between atoms: _358  and  _359
REMARK  143  A    between atoms: _363  and  _365
REMARK  144  A    between atoms: _365  and  _366
REMARK  145  A    between atoms: _365  and  _368
REMARK  146  A    between atoms: _368  and  _369
REMARK  147  A    between atoms: _372  and  _374
REMARK  148  A    between atoms: _374  and  _375
REMARK  149  A    between atoms: _374  and  _377
REMARK  150  A    between atoms: _377  and  _378
REMARK  151  A    between atoms: _383  and  _384
REMARK  152  A    between atoms: _386  and  _388
REMARK  153  A    between atoms: _388  and  _389
REMARK  154  A    between atoms: _388  and  _391
REMARK  155  A    between atoms: _391  and  _392
REMARK  156  A    between atoms: _392  and  _393
REMARK  157  A    between atoms: _398  and  _400
REMARK  158  A    between atoms: _400  and  _401
REMARK  159  A    between atoms: _400  and  _403
REMARK  160  A    between atoms: _403  and  _404
REMARK  161  A    between atoms: _407  and  _409
REMARK  162  A    between atoms: _409  and  _410
REMARK  163  A    between atoms: _409  and  _412
REMARK  164  A    between atoms: _412  and  _413
REMARK  165  A    between atoms: _416  and  _418
REMARK  166  A    between atoms: _418  and  _419
REMARK  167  A    between atoms: _418  and  _421
REMARK  168  A    between atoms: _424  and  _426
REMARK  169  A    between atoms: _426  and  _427
REMARK  170  A    between atoms: _429  and  _431
REMARK  171  A    between atoms: _431  and  _432
REMARK  172  A    between atoms: _431  and  _434
REMARK  173  A    between atoms: _438  and  _439
REMARK  174  A    between atoms: _444  and  _446
REMARK  175  A    between atoms: _446  and  _447
REMARK  176  A    between atoms: _446  and  _449
REMARK  177  A    between atoms: _449  and  _450
REMARK  178  A    between atoms: _453  and  _455
REMARK  179  A    between atoms: _455  and  _456
REMARK  180  A    between atoms: _455  and  _458
REMARK  181  A    between atoms: _461  and  _463
REMARK  182  A    between atoms: _463  and  _464
REMARK  183  A    between atoms: _463  and  _466
REMARK  184  A    between atoms: _466  and  _467
REMARK  185  A    between atoms: _467  and  _468
REMARK  186  A    between atoms: _468  and  _469
REMARK  187  A    between atoms: _478  and  _480
REMARK  188  A    between atoms: _480  and  _481
REMARK  189  A    between atoms: _480  and  _483
REMARK  190  A    between atoms: _483  and  _484
REMARK  191  A    between atoms: _484  and  _485
REMARK  192  A    between atoms: _488  and  _490
REMARK  193  A    between atoms: _490  and  _491
REMARK  194  A    between atoms: _490  and  _493
REMARK  195  A    between atoms: _493  and  _494
REMARK  196  A    between atoms: _497  and  _499
REMARK  197  A    between atoms: _499  and  _500
REMARK  198  A    between atoms: _503  and  _505
REMARK  199  A    between atoms: _505  and  _506
REMARK  200  A    between atoms: _505  and  _508
REMARK  201  A    between atoms: _508  and  _509
REMARK  202  A    between atoms: _509  and  _510
REMARK  203  A    between atoms: _512  and  _514
REMARK  204  A    between atoms: _514  and  _515
REMARK  205  A    between atoms: _514  and  _517
REMARK  206  A    between atoms: _517  and  _518
REMARK  207  A    between atoms: _520  and  _522
REMARK  208  A    between atoms: _522  and  _523
REMARK  209  A    between atoms: _522  and  _525
REMARK  210  A    between atoms: _525  and  _526
REMARK  211  A    between atoms: _528  and  _530
REMARK  212  A    between atoms: _530  and  _531
REMARK  213  A    between atoms: _530  and  _533
REMARK  214  A    between atoms: _533  and  _534
REMARK  215  A    between atoms: _534  and  _535
REMARK  216  A    between atoms: _535  and  _536
REMARK  217  A    between atoms: _545  and  _547
REMARK  218  A    between atoms: _547  and  _548
REMARK  219  A    between atoms: _547  and  _550
REMARK  220  A    between atoms: _550  and  _551
REMARK  221  A    between atoms: _556  and  _558
REMARK  222  A    between atoms: _558  and  _559
REMARK  223  A    between atoms: _558  and  _561
REMARK  224  A    between atoms: _561  and  _562
REMARK  225  A    between atoms: _565  and  _567
REMARK  226  A    between atoms: _567  and  _568
REMARK  227  A    between atoms: _567  and  _570
REMARK  228  A    between atoms: _570  and  _571
REMARK                            x       y       z     vdW  Elec       q    Type
REMARK                         _______ _______ _______ _____ _____    ______ ____
ROOT
ATOM      1  O   HOH     1      20.041   4.112   2.929  0.00  0.00    +0.000 OA
ENDROOT
TORSDOF 0
REMARK  Name = ../refined-set-2016/3coz/3coz_pocket.pdb
REMARK  228 active torsions:
REMARK  status: ('A' for Active; 'I' for Inactive)
REMARK    1  A    between atoms: _1  and  _3
REMARK    2  A    between atoms: _3  and  _4
REMARK    3  A    between atoms: _3  and  _6
REMARK    4  A    between atoms: _6  and  _7
REMARK    5  A    between atoms: _10  and  _12
REMARK    6  A    between atoms: _12  and  _13
REMARK    7  A    between atoms: _12  and  _15
REMARK    8  A    between atoms: _19  and  _20
REMARK    9  A    between atoms: _25  and  _27
REMARK   10  A    between atoms: _27  and  _28
REMARK   11  A    between atoms: _27  and  _30
REMARK   12  A    between atoms: _30  and  _31
REMARK   13  A    between atoms: _34  and  _36
REMARK   14  A    between atoms: _36  and  _37
REMARK   15  A    between atoms: _36  and  _39
REMARK   16  A    between atoms: _39  and  _40
REMARK   17  A    between atoms: _40  and  _41
REMARK   18  A    between atoms: _43  and  _45
REMARK   19  A    between atoms: _45  and  _46
REMARK   20  A    between atoms: _48  and  _50
REMARK   21  A    between atoms: _50  and  _51
REMARK   22  A    between atoms: _54  and  _56
REMARK   23  A    between atoms: _56  and  _57
REMARK   24  A    between atoms: _56  and  _59
REMARK   25  A    between atoms: _59  and  _60
REMARK   26  A    between atoms: _63  and  _65
REMARK   27  A    between atoms: _65  and  _66
REMARK   28  A    between atoms: _65  and  _68
REMARK   29  A    between atoms: _68  and  _69
REMARK   30  A    between atoms: _74  and  _76
REMARK   31  A    between atoms: _76  and  _77
REMARK   32  A    between atoms: _76  and  _79
REMARK   33  A    between atoms: _79  and  _80
REMARK   34  A    between atoms: _80  and  _81
REMARK   35  A    between atoms: _84  and  _86
REMARK   36  A    between atoms: _86  and  _87
REMARK   37  A    between atoms: _89  and  _91
REMARK   38  A    between atoms: _91  and  _92
REMARK   39  A    between atoms: _91  and  _94
REMARK   40  A    between atoms: _94  and  _95
REMARK   41  A    between atoms: _100  and  _102
REMARK   42  A    between atoms: _102  and  _103
REMARK   43  A    between atoms: _102  and  _105
REMARK   44  A    between atoms: _105  and  _106
REMARK   45  A    between atoms: _109  and  _111
REMARK   46  A    between atoms: _111  and  _112
REMARK   47  A    between atoms: _115  and  _117
REMARK   48  A    between atoms: _117  and  _118
REMARK   49  A    between atoms: _117  and  _120
REMARK   50  A    between atoms: _120  and  _121
REMARK   51  A    between atoms: _124  and  _126
REMARK   52  A    between atoms: _126  and  _127
REMARK   53  A    between atoms: _126  and  _129
REMARK   54  A    between atoms: _132  and  _134
REMARK   55  A    between atoms: _134  and  _135
REMARK   56  A    between atoms: _134  and  _137
REMARK   57  A    between atoms: _140  and  _142
REMARK   58  A    between atoms: _142  and  _143
REMARK   59  A    between atoms: _142  and  _145
REMARK   60  A    between atoms: _145  and  _146
REMARK   61  A    between atoms: _148  and  _150
REMARK   62  A    between atoms: _150  and  _151
REMARK   63  A    between atoms: _150  and  _153
REMARK   64  A    between atoms: _153  and  _154
REMARK   65  A    between atoms: _157  and  _159
REMARK   66  A    between atoms: _159  and  _160
REMARK   67  A    between atoms: _159  and  _162
REMARK   68  A    between atoms: _162  and  _163
REMARK   69  A    between atoms: _169  and  _171
REMARK   70  A    between atoms: _171  and  _172
REMARK   71  A    between atoms: _171  and  _174
REMARK   72  A    between atoms: _177  and  _179
REMARK   73  A    between atoms: _179  and  _180
REMARK   74  A    between atoms: _179  and  _182
REMARK   75  A    between atoms: _182  and  _183
REMARK   76  A    between atoms: _188  and  _190
REMARK   77  A    between atoms: _190  and  _191
REMARK   78  A    between atoms: _190  and  _193
REMARK   79  A    between atoms: _193  and  _194
REMARK   80  A    between atoms: _194  and  _195
REMARK   81  A    between atoms: _200  and  _202
REMARK   82  A    between atoms: _202  and  _203
REMARK   83  A    between atoms: _202  and  _205
REMARK   84  A    between atoms: _205  and  _206
REMARK   85  A    between atoms: _212  and  _214
REMARK   86  A    between atoms: _214  and  _215
REMARK   87  A    between atoms: _214  and  _217
REMARK   88  A    between atoms: _217  and  _218
REMARK   89  A    between atoms: _223  and  _224
REMARK   90  A    between atoms: _227  and  _228
REMARK   91  A    between atoms: _233  and  _235
REMARK   92  A    between atoms: _235  and  _236
REMARK   93  A    between atoms: _235  and  _238
REMARK   94  A    between atoms: _238  and  _239
REMARK   95  A    between atoms: _244  and  _246
REMARK   96  A    between atoms: _246  and  _247
REMARK   97  A    between atoms: _246  and  _249
REMARK   98  A    between atoms: _249  and  _250
REMARK   99  A    between atoms: _256  and  _258
REMARK  100  A    between atoms: _258  and  _259
REMARK  101  A    between atoms: _261  and  _263
REMARK  102  A    between atoms: _263  and  _264
REMARK  103  A    between atoms: _263  and  _266
REMARK  104  A    between atoms: _269  and  _271
REMARK  105  A    between atoms: _271  and  _272
REMARK  106  A    between atoms: _271  and  _274
REMARK  107  A    between atoms: _274  and  _275
REMARK  108  A    between atoms: _278  and  _280
REMARK  109  A    between atoms: _280  and  _281
REMARK  110  A    between atoms: _280  and  _283
REMARK  111  A    between atoms: _286  and  _288
REMARK  112  A    between atoms: _288  and  _289
REMARK  113  A    between atoms: _288  and  _291
REMARK  114  A    between atoms: _294  and  _296
REMARK  115  A    between atoms: _296  and  _297
REMARK  116  A    between atoms: _296  and  _299
REMARK  117  A    between atoms: _299  and  _300
REMARK  118  A    between atoms: _303  and  _305
REMARK  119  A    between atoms: _305  and  _306
REMARK  120  A    between atoms: _305  and  _308
REMARK  121  A    between atoms: _311  and  _313
REMARK  122  A    between atoms: _313  and  _314
REMARK  123  A    between atoms: _313  and  _316
REMARK  124  A    between atoms: _316  and  _317
REMARK  125  A    between atoms: _323  and  _325
REMARK  126  A    between atoms: _325  and  _326
REMARK  127  A    between atoms: _325  and  _328
REMARK  128  A    between atoms: _328  and  _329
REMARK  129  A    between atoms: _335  and  _337
REMARK  130  A    between atoms: _337  and  _338
REMARK  131  A    between atoms: _340  and  _342
REMARK  132  A    between atoms: _342  and  _343
REMARK  133  A    between atoms: _342  and  _345
REMARK  134  A    between atoms: _345  and  _346
REMARK  135  A    between atoms: _346  and  _347
REMARK  136  A    between atoms: _350  and  _352
REMARK  137  A    between atoms: _352  and  _353
REMARK  138  A    between atoms: _352  and  _355
REMARK  139  A    between atoms: _355  and  _356
REMARK  140  A    between atoms: _356  and  _357
REMARK  141  A    between atoms: _357  and  _358
REMARK  142  A    between atoms: _358  and  _359
REMARK  143  A    between atoms: _363  and  _365
REMARK  144  A    between atoms: _365  and  _366
REMARK  145  A    between atoms: _365  and  _368
REMARK  146  A    between atoms: _368  and  _369
REMARK  147  A    between atoms: _372  and  _374
REMARK  148  A    between atoms: _374  and  _375
REMARK  149  A    between atoms: _374  and  _377
REMARK  150  A    between atoms: _377  and  _378
REMARK  151  A    between atoms: _383  and  _384
REMARK  152  A    between atoms: _386  and  _388
REMARK  153  A    between atoms: _388  and  _389
REMARK  154  A    between atoms: _388  and  _391
REMARK  155  A    between atoms: _391  and  _392
REMARK  156  A    between atoms: _392  and  _393
REMARK  157  A    between atoms: _398  and  _400
REMARK  158  A    between atoms: _400  and  _401
REMARK  159  A    between atoms: _400  and  _403
REMARK  160  A    between atoms: _403  and  _404
REMARK  161  A    between atoms: _407  and  _409
REMARK  162  A    between atoms: _409  and  _410
REMARK  163  A    between atoms: _409  and  _412
REMARK  164  A    between atoms: _412  and  _413
REMARK  165  A    between atoms: _416  and  _418
REMARK  166  A    between atoms: _418  and  _419
REMARK  167  A    between atoms: _418  and  _421
REMARK  168  A    between atoms: _424  and  _426
REMARK  169  A    between atoms: _426  and  _427
REMARK  170  A    between atoms: _429  and  _431
REMARK  171  A    between atoms: _431  and  _432
REMARK  172  A    between atoms: _431  and  _434
REMARK  173  A    between atoms: _438  and  _439
REMARK  174  A    between atoms: _444  and  _446
REMARK  175  A    between atoms: _446  and  _447
REMARK  176  A    between atoms: _446  and  _449
REMARK  177  A    between atoms: _449  and  _450
REMARK  178  A    between atoms: _453  and  _455
REMARK  179  A    between atoms: _455  and  _456
REMARK  180  A    between atoms: _455  and  _458
REMARK  181  A    between atoms: _461  and  _463
REMARK  182  A    between atoms: _463  and  _464
REMARK  183  A    between atoms: _463  and  _466
REMARK  184  A    between atoms: _466  and  _467
REMARK  185  A    between atoms: _467  and  _468
REMARK  186  A    between atoms: _468  and  _469
REMARK  187  A    between atoms: _478  and  _480
REMARK  188  A    between atoms: _480  and  _481
REMARK  189  A    between atoms: _480  and  _483
REMARK  190  A    between atoms: _483  and  _484
REMARK  191  A    between atoms: _484  and  _485
REMARK  192  A    between atoms: _488  and  _490
REMARK  193  A    between atoms: _490  and  _491
REMARK  194  A    between atoms: _490  and  _493
REMARK  195  A    between atoms: _493  and  _494
REMARK  196  A    between atoms: _497  and  _499
REMARK  197  A    between atoms: _499  and  _500
REMARK  198  A    between atoms: _503  and  _505
REMARK  199  A    between atoms: _505  and  _506
REMARK  200  A    between atoms: _505  and  _508
REMARK  201  A    between atoms: _508  and  _509
REMARK  202  A    between atoms: _509  and  _510
REMARK  203  A    between atoms: _512  and  _514
REMARK  204  A    between atoms: _514  and  _515
REMARK  205  A    between atoms: _514  and  _517
REMARK  206  A    between atoms: _517  and  _518
REMARK  207  A    between atoms: _520  and  _522
REMARK  208  A    between atoms: _522  and  _523
REMARK  209  A    between atoms: _522  and  _525
REMARK  210  A    between atoms: _525  and  _526
REMARK  211  A    between atoms: _528  and  _530
REMARK  212  A    between atoms: _530  and  _531
REMARK  213  A    between atoms: _530  and  _533
REMARK  214  A    between atoms: _533  and  _534
REMARK  215  A    between atoms: _534  and  _535
REMARK  216  A    between atoms: _535  and  _536
REMARK  217  A    between atoms: _545  and  _547
REMARK  218  A    between atoms: _547  and  _548
REMARK  219  A    between atoms: _547  and  _550
REMARK  220  A    between atoms: _550  and  _551
REMARK  221  A    between atoms: _556  and  _558
REMARK  222  A    between atoms: _558  and  _559
REMARK  223  A    between atoms: _558  and  _561
REMARK  224  A    between atoms: _561  and  _562
REMARK  225  A    between atoms: _565  and  _567
REMARK  226  A    between atoms: _567  and  _568
REMARK  227  A    between atoms: _567  and  _570
REMARK  228  A    between atoms: _570  and  _571
REMARK                            x       y       z     vdW  Elec       q    Type
REMARK                         _______ _______ _______ _____ _____    ______ ____
ROOT
ATOM      1  O   HOH     1      19.226   5.071   5.391  0.00  0.00    +0.000 OA
ENDROOT
TORSDOF 0
REMARK  Name = ../refined-set-2016/3coz/3coz_pocket.pdb
REMARK  228 active torsions:
REMARK  status: ('A' for Active; 'I' for Inactive)
REMARK    1  A    between atoms: _1  and  _3
REMARK    2  A    between atoms: _3  and  _4
REMARK    3  A    between atoms: _3  and  _6
REMARK    4  A    between atoms: _6  and  _7
REMARK    5  A    between atoms: _10  and  _12
REMARK    6  A    between atoms: _12  and  _13
REMARK    7  A    between atoms: _12  and  _15
REMARK    8  A    between atoms: _19  and  _20
REMARK    9  A    between atoms: _25  and  _27
REMARK   10  A    between atoms: _27  and  _28
REMARK   11  A    between atoms: _27  and  _30
REMARK   12  A    between atoms: _30  and  _31
REMARK   13  A    between atoms: _34  and  _36
REMARK   14  A    between atoms: _36  and  _37
REMARK   15  A    between atoms: _36  and  _39
REMARK   16  A    between atoms: _39  and  _40
REMARK   17  A    between atoms: _40  and  _41
REMARK   18  A    between atoms: _43  and  _45
REMARK   19  A    between atoms: _45  and  _46
REMARK   20  A    between atoms: _48  and  _50
REMARK   21  A    between atoms: _50  and  _51
REMARK   22  A    between atoms: _54  and  _56
REMARK   23  A    between atoms: _56  and  _57
REMARK   24  A    between atoms: _56  and  _59
REMARK   25  A    between atoms: _59  and  _60
REMARK   26  A    between atoms: _63  and  _65
REMARK   27  A    between atoms: _65  and  _66
REMARK   28  A    between atoms: _65  and  _68
REMARK   29  A    between atoms: _68  and  _69
REMARK   30  A    between atoms: _74  and  _76
REMARK   31  A    between atoms: _76  and  _77
REMARK   32  A    between atoms: _76  and  _79
REMARK   33  A    between atoms: _79  and  _80
REMARK   34  A    between atoms: _80  and  _81
REMARK   35  A    between atoms: _84  and  _86
REMARK   36  A    between atoms: _86  and  _87
REMARK   37  A    between atoms: _89  and  _91
REMARK   38  A    between atoms: _91  and  _92
REMARK   39  A    between atoms: _91  and  _94
REMARK   40  A    between atoms: _94  and  _95
REMARK   41  A    between atoms: _100  and  _102
REMARK   42  A    between atoms: _102  and  _103
REMARK   43  A    between atoms: _102  and  _105
REMARK   44  A    between atoms: _105  and  _106
REMARK   45  A    between atoms: _109  and  _111
REMARK   46  A    between atoms: _111  and  _112
REMARK   47  A    between atoms: _115  and  _117
REMARK   48  A    between atoms: _117  and  _118
REMARK   49  A    between atoms: _117  and  _120
REMARK   50  A    between atoms: _120  and  _121
REMARK   51  A    between atoms: _124  and  _126
REMARK   52  A    between atoms: _126  and  _127
REMARK   53  A    between atoms: _126  and  _129
REMARK   54  A    between atoms: _132  and  _134
REMARK   55  A    between atoms: _134  and  _135
REMARK   56  A    between atoms: _134  and  _137
REMARK   57  A    between atoms: _140  and  _142
REMARK   58  A    between atoms: _142  and  _143
REMARK   59  A    between atoms: _142  and  _145
REMARK   60  A    between atoms: _145  and  _146
REMARK   61  A    between atoms: _148  and  _150
REMARK   62  A    between atoms: _150  and  _151
REMARK   63  A    between atoms: _150  and  _153
REMARK   64  A    between atoms: _153  and  _154
REMARK   65  A    between atoms: _157  and  _159
REMARK   66  A    between atoms: _159  and  _160
REMARK   67  A    between atoms: _159  and  _162
REMARK   68  A    between atoms: _162  and  _163
REMARK   69  A    between atoms: _169  and  _171
REMARK   70  A    between atoms: _171  and  _172
REMARK   71  A    between atoms: _171  and  _174
REMARK   72  A    between atoms: _177  and  _179
REMARK   73  A    between atoms: _179  and  _180
REMARK   74  A    between atoms: _179  and  _182
REMARK   75  A    between atoms: _182  and  _183
REMARK   76  A    between atoms: _188  and  _190
REMARK   77  A    between atoms: _190  and  _191
REMARK   78  A    between atoms: _190  and  _193
REMARK   79  A    between atoms: _193  and  _194
REMARK   80  A    between atoms: _194  and  _195
REMARK   81  A    between atoms: _200  and  _202
REMARK   82  A    between atoms: _202  and  _203
REMARK   83  A    between atoms: _202  and  _205
REMARK   84  A    between atoms: _205  and  _206
REMARK   85  A    between atoms: _212  and  _214
REMARK   86  A    between atoms: _214  and  _215
REMARK   87  A    between atoms: _214  and  _217
REMARK   88  A    between atoms: _217  and  _218
REMARK   89  A    between atoms: _223  and  _224
REMARK   90  A    between atoms: _227  and  _228
REMARK   91  A    between atoms: _233  and  _235
REMARK   92  A    between atoms: _235  and  _236
REMARK   93  A    between atoms: _235  and  _238
REMARK   94  A    between atoms: _238  and  _239
REMARK   95  A    between atoms: _244  and  _246
REMARK   96  A    between atoms: _246  and  _247
REMARK   97  A    between atoms: _246  and  _249
REMARK   98  A    between atoms: _249  and  _250
REMARK   99  A    between atoms: _256  and  _258
REMARK  100  A    between atoms: _258  and  _259
REMARK  101  A    between atoms: _261  and  _263
REMARK  102  A    between atoms: _263  and  _264
REMARK  103  A    between atoms: _263  and  _266
REMARK  104  A    between atoms: _269  and  _271
REMARK  105  A    between atoms: _271  and  _272
REMARK  106  A    between atoms: _271  and  _274
REMARK  107  A    between atoms: _274  and  _275
REMARK  108  A    between atoms: _278  and  _280
REMARK  109  A    between atoms: _280  and  _281
REMARK  110  A    between atoms: _280  and  _283
REMARK  111  A    between atoms: _286  and  _288
REMARK  112  A    between atoms: _288  and  _289
REMARK  113  A    between atoms: _288  and  _291
REMARK  114  A    between atoms: _294  and  _296
REMARK  115  A    between atoms: _296  and  _297
REMARK  116  A    between atoms: _296  and  _299
REMARK  117  A    between atoms: _299  and  _300
REMARK  118  A    between atoms: _303  and  _305
REMARK  119  A    between atoms: _305  and  _306
REMARK  120  A    between atoms: _305  and  _308
REMARK  121  A    between atoms: _311  and  _313
REMARK  122  A    between atoms: _313  and  _314
REMARK  123  A    between atoms: _313  and  _316
REMARK  124  A    between atoms: _316  and  _317
REMARK  125  A    between atoms: _323  and  _325
REMARK  126  A    between atoms: _325  and  _326
REMARK  127  A    between atoms: _325  and  _328
REMARK  128  A    between atoms: _328  and  _329
REMARK  129  A    between atoms: _335  and  _337
REMARK  130  A    between atoms: _337  and  _338
REMARK  131  A    between atoms: _340  and  _342
REMARK  132  A    between atoms: _342  and  _343
REMARK  133  A    between atoms: _342  and  _345
REMARK  134  A    between atoms: _345  and  _346
REMARK  135  A    between atoms: _346  and  _347
REMARK  136  A    between atoms: _350  and  _352
REMARK  137  A    between atoms: _352  and  _353
REMARK  138  A    between atoms: _352  and  _355
REMARK  139  A    between atoms: _355  and  _356
REMARK  140  A    between atoms: _356  and  _357
REMARK  141  A    between atoms: _357  and  _358
REMARK  142  A    between atoms: _358  and  _359
REMARK  143  A    between atoms: _363  and  _365
REMARK  144  A    between atoms: _365  and  _366
REMARK  145  A    between atoms: _365  and  _368
REMARK  146  A    between atoms: _368  and  _369
REMARK  147  A    between atoms: _372  and  _374
REMARK  148  A    between atoms: _374  and  _375
REMARK  149  A    between atoms: _374  and  _377
REMARK  150  A    between atoms: _377  and  _378
REMARK  151  A    between atoms: _383  and  _384
REMARK  152  A    between atoms: _386  and  _388
REMARK  153  A    between atoms: _388  and  _389
REMARK  154  A    between atoms: _388  and  _391
REMARK  155  A    between atoms: _391  and  _392
REMARK  156  A    between atoms: _392  and  _393
REMARK  157  A    between atoms: _398  and  _400
REMARK  158  A    between atoms: _400  and  _401
REMARK  159  A    between atoms: _400  and  _403
REMARK  160  A    between atoms: _403  and  _404
REMARK  161  A    between atoms: _407  and  _409
REMARK  162  A    between atoms: _409  and  _410
REMARK  163  A    between atoms: _409  and  _412
REMARK  164  A    between atoms: _412  and  _413
REMARK  165  A    between atoms: _416  and  _418
REMARK  166  A    between atoms: _418  and  _419
REMARK  167  A    between atoms: _418  and  _421
REMARK  168  A    between atoms: _424  and  _426
REMARK  169  A    between atoms: _426  and  _427
REMARK  170  A    between atoms: _429  and  _431
REMARK  171  A    between atoms: _431  and  _432
REMARK  172  A    between atoms: _431  and  _434
REMARK  173  A    between atoms: _438  and  _439
REMARK  174  A    between atoms: _444  and  _446
REMARK  175  A    between atoms: _446  and  _447
REMARK  176  A    between atoms: _446  and  _449
REMARK  177  A    between atoms: _449  and  _450
REMARK  178  A    between atoms: _453  and  _455
REMARK  179  A    between atoms: _455  and  _456
REMARK  180  A    between atoms: _455  and  _458
REMARK  181  A    between atoms: _461  and  _463
REMARK  182  A    between atoms: _463  and  _464
REMARK  183  A    between atoms: _463  and  _466
REMARK  184  A    between atoms: _466  and  _467
REMARK  185  A    between atoms: _467  and  _468
REMARK  186  A    between atoms: _468  and  _469
REMARK  187  A    between atoms: _478  and  _480
REMARK  188  A    between atoms: _480  and  _481
REMARK  189  A    between atoms: _480  and  _483
REMARK  190  A    between atoms: _483  and  _484
REMARK  191  A    between atoms: _484  and  _485
REMARK  192  A    between atoms: _488  and  _490
REMARK  193  A    between atoms: _490  and  _491
REMARK  194  A    between atoms: _490  and  _493
REMARK  195  A    between atoms: _493  and  _494
REMARK  196  A    between atoms: _497  and  _499
REMARK  197  A    between atoms: _499  and  _500
REMARK  198  A    between atoms: _503  and  _505
REMARK  199  A    between atoms: _505  and  _506
REMARK  200  A    between atoms: _505  and  _508
REMARK  201  A    between atoms: _508  and  _509
REMARK  202  A    between atoms: _509  and  _510
REMARK  203  A    between atoms: _512  and  _514
REMARK  204  A    between atoms: _514  and  _515
REMARK  205  A    between atoms: _514  and  _517
REMARK  206  A    between atoms: _517  and  _518
REMARK  207  A    between atoms: _520  and  _522
REMARK  208  A    between atoms: _522  and  _523
REMARK  209  A    between atoms: _522  and  _525
REMARK  210  A    between atoms: _525  and  _526
REMARK  211  A    between atoms: _528  and  _530
REMARK  212  A    between atoms: _530  and  _531
REMARK  213  A    between atoms: _530  and  _533
REMARK  214  A    between atoms: _533  and  _534
REMARK  215  A    between atoms: _534  and  _535
REMARK  216  A    between atoms: _535  and  _536
REMARK  217  A    between atoms: _545  and  _547
REMARK  218  A    between atoms: _547  and  _548
REMARK  219  A    between atoms: _547  and  _550
REMARK  220  A    between atoms: _550  and  _551
REMARK  221  A    between atoms: _556  and  _558
REMARK  222  A    between atoms: _558  and  _559
REMARK  223  A    between atoms: _558  and  _561
REMARK  224  A    between atoms: _561  and  _562
REMARK  225  A    between atoms: _565  and  _567
REMARK  226  A    between atoms: _567  and  _568
REMARK  227  A    between atoms: _567  and  _570
REMARK  228  A    between atoms: _570  and  _571
REMARK                            x       y       z     vdW  Elec       q    Type
REMARK                         _______ _______ _______ _____ _____    ______ ____
ROOT
ATOM      1  O   HOH     1       5.990   9.241  -8.483  0.00  0.00    +0.000 OA
ENDROOT
TORSDOF 0
REMARK  Name = ../refined-set-2016/3coz/3coz_pocket.pdb
REMARK  228 active torsions:
REMARK  status: ('A' for Active; 'I' for Inactive)
REMARK    1  A    between atoms: _1  and  _3
REMARK    2  A    between atoms: _3  and  _4
REMARK    3  A    between atoms: _3  and  _6
REMARK    4  A    between atoms: _6  and  _7
REMARK    5  A    between atoms: _10  and  _12
REMARK    6  A    between atoms: _12  and  _13
REMARK    7  A    between atoms: _12  and  _15
REMARK    8  A    between atoms: _19  and  _20
REMARK    9  A    between atoms: _25  and  _27
REMARK   10  A    between atoms: _27  and  _28
REMARK   11  A    between atoms: _27  and  _30
REMARK   12  A    between atoms: _30  and  _31
REMARK   13  A    between atoms: _34  and  _36
REMARK   14  A    between atoms: _36  and  _37
REMARK   15  A    between atoms: _36  and  _39
REMARK   16  A    between atoms: _39  and  _40
REMARK   17  A    between atoms: _40  and  _41
REMARK   18  A    between atoms: _43  and  _45
REMARK   19  A    between atoms: _45  and  _46
REMARK   20  A    between atoms: _48  and  _50
REMARK   21  A    between atoms: _50  and  _51
REMARK   22  A    between atoms: _54  and  _56
REMARK   23  A    between atoms: _56  and  _57
REMARK   24  A    between atoms: _56  and  _59
REMARK   25  A    between atoms: _59  and  _60
REMARK   26  A    between atoms: _63  and  _65
REMARK   27  A    between atoms: _65  and  _66
REMARK   28  A    between atoms: _65  and  _68
REMARK   29  A    between atoms: _68  and  _69
REMARK   30  A    between atoms: _74  and  _76
REMARK   31  A    between atoms: _76  and  _77
REMARK   32  A    between atoms: _76  and  _79
REMARK   33  A    between atoms: _79  and  _80
REMARK   34  A    between atoms: _80  and  _81
REMARK   35  A    between atoms: _84  and  _86
REMARK   36  A    between atoms: _86  and  _87
REMARK   37  A    between atoms: _89  and  _91
REMARK   38  A    between atoms: _91  and  _92
REMARK   39  A    between atoms: _91  and  _94
REMARK   40  A    between atoms: _94  and  _95
REMARK   41  A    between atoms: _100  and  _102
REMARK   42  A    between atoms: _102  and  _103
REMARK   43  A    between atoms: _102  and  _105
REMARK   44  A    between atoms: _105  and  _106
REMARK   45  A    between atoms: _109  and  _111
REMARK   46  A    between atoms: _111  and  _112
REMARK   47  A    between atoms: _115  and  _117
REMARK   48  A    between atoms: _117  and  _118
REMARK   49  A    between atoms: _117  and  _120
REMARK   50  A    between atoms: _120  and  _121
REMARK   51  A    between atoms: _124  and  _126
REMARK   52  A    between atoms: _126  and  _127
REMARK   53  A    between atoms: _126  and  _129
REMARK   54  A    between atoms: _132  and  _134
REMARK   55  A    between atoms: _134  and  _135
REMARK   56  A    between atoms: _134  and  _137
REMARK   57  A    between atoms: _140  and  _142
REMARK   58  A    between atoms: _142  and  _143
REMARK   59  A    between atoms: _142  and  _145
REMARK   60  A    between atoms: _145  and  _146
REMARK   61  A    between atoms: _148  and  _150
REMARK   62  A    between atoms: _150  and  _151
REMARK   63  A    between atoms: _150  and  _153
REMARK   64  A    between atoms: _153  and  _154
REMARK   65  A    between atoms: _157  and  _159
REMARK   66  A    between atoms: _159  and  _160
REMARK   67  A    between atoms: _159  and  _162
REMARK   68  A    between atoms: _162  and  _163
REMARK   69  A    between atoms: _169  and  _171
REMARK   70  A    between atoms: _171  and  _172
REMARK   71  A    between atoms: _171  and  _174
REMARK   72  A    between atoms: _177  and  _179
REMARK   73  A    between atoms: _179  and  _180
REMARK   74  A    between atoms: _179  and  _182
REMARK   75  A    between atoms: _182  and  _183
REMARK   76  A    between atoms: _188  and  _190
REMARK   77  A    between atoms: _190  and  _191
REMARK   78  A    between atoms: _190  and  _193
REMARK   79  A    between atoms: _193  and  _194
REMARK   80  A    between atoms: _194  and  _195
REMARK   81  A    between atoms: _200  and  _202
REMARK   82  A    between atoms: _202  and  _203
REMARK   83  A    between atoms: _202  and  _205
REMARK   84  A    between atoms: _205  and  _206
REMARK   85  A    between atoms: _212  and  _214
REMARK   86  A    between atoms: _214  and  _215
REMARK   87  A    between atoms: _214  and  _217
REMARK   88  A    between atoms: _217  and  _218
REMARK   89  A    between atoms: _223  and  _224
REMARK   90  A    between atoms: _227  and  _228
REMARK   91  A    between atoms: _233  and  _235
REMARK   92  A    between atoms: _235  and  _236
REMARK   93  A    between atoms: _235  and  _238
REMARK   94  A    between atoms: _238  and  _239
REMARK   95  A    between atoms: _244  and  _246
REMARK   96  A    between atoms: _246  and  _247
REMARK   97  A    between atoms: _246  and  _249
REMARK   98  A    between atoms: _249  and  _250
REMARK   99  A    between atoms: _256  and  _258
REMARK  100  A    between atoms: _258  and  _259
REMARK  101  A    between atoms: _261  and  _263
REMARK  102  A    between atoms: _263  and  _264
REMARK  103  A    between atoms: _263  and  _266
REMARK  104  A    between atoms: _269  and  _271
REMARK  105  A    between atoms: _271  and  _272
REMARK  106  A    between atoms: _271  and  _274
REMARK  107  A    between atoms: _274  and  _275
REMARK  108  A    between atoms: _278  and  _280
REMARK  109  A    between atoms: _280  and  _281
REMARK  110  A    between atoms: _280  and  _283
REMARK  111  A    between atoms: _286  and  _288
REMARK  112  A    between atoms: _288  and  _289
REMARK  113  A    between atoms: _288  and  _291
REMARK  114  A    between atoms: _294  and  _296
REMARK  115  A    between atoms: _296  and  _297
REMARK  116  A    between atoms: _296  and  _299
REMARK  117  A    between atoms: _299  and  _300
REMARK  118  A    between atoms: _303  and  _305
REMARK  119  A    between atoms: _305  and  _306
REMARK  120  A    between atoms: _305  and  _308
REMARK  121  A    between atoms: _311  and  _313
REMARK  122  A    between atoms: _313  and  _314
REMARK  123  A    between atoms: _313  and  _316
REMARK  124  A    between atoms: _316  and  _317
REMARK  125  A    between atoms: _323  and  _325
REMARK  126  A    between atoms: _325  and  _326
REMARK  127  A    between atoms: _325  and  _328
REMARK  128  A    between atoms: _328  and  _329
REMARK  129  A    between atoms: _335  and  _337
REMARK  130  A    between atoms: _337  and  _338
REMARK  131  A    between atoms: _340  and  _342
REMARK  132  A    between atoms: _342  and  _343
REMARK  133  A    between atoms: _342  and  _345
REMARK  134  A    between atoms: _345  and  _346
REMARK  135  A    between atoms: _346  and  _347
REMARK  136  A    between atoms: _350  and  _352
REMARK  137  A    between atoms: _352  and  _353
REMARK  138  A    between atoms: _352  and  _355
REMARK  139  A    between atoms: _355  and  _356
REMARK  140  A    between atoms: _356  and  _357
REMARK  141  A    between atoms: _357  and  _358
REMARK  142  A    between atoms: _358  and  _359
REMARK  143  A    between atoms: _363  and  _365
REMARK  144  A    between atoms: _365  and  _366
REMARK  145  A    between atoms: _365  and  _368
REMARK  146  A    between atoms: _368  and  _369
REMARK  147  A    between atoms: _372  and  _374
REMARK  148  A    between atoms: _374  and  _375
REMARK  149  A    between atoms: _374  and  _377
REMARK  150  A    between atoms: _377  and  _378
REMARK  151  A    between atoms: _383  and  _384
REMARK  152  A    between atoms: _386  and  _388
REMARK  153  A    between atoms: _388  and  _389
REMARK  154  A    between atoms: _388  and  _391
REMARK  155  A    between atoms: _391  and  _392
REMARK  156  A    between atoms: _392  and  _393
REMARK  157  A    between atoms: _398  and  _400
REMARK  158  A    between atoms: _400  and  _401
REMARK  159  A    between atoms: _400  and  _403
REMARK  160  A    between atoms: _403  and  _404
REMARK  161  A    between atoms: _407  and  _409
REMARK  162  A    between atoms: _409  and  _410
REMARK  163  A    between atoms: _409  and  _412
REMARK  164  A    between atoms: _412  and  _413
REMARK  165  A    between atoms: _416  and  _418
REMARK  166  A    between atoms: _418  and  _419
REMARK  167  A    between atoms: _418  and  _421
REMARK  168  A    between atoms: _424  and  _426
REMARK  169  A    between atoms: _426  and  _427
REMARK  170  A    between atoms: _429  and  _431
REMARK  171  A    between atoms: _431  and  _432
REMARK  172  A    between atoms: _431  and  _434
REMARK  173  A    between atoms: _438  and  _439
REMARK  174  A    between atoms: _444  and  _446
REMARK  175  A    between atoms: _446  and  _447
REMARK  176  A    between atoms: _446  and  _449
REMARK  177  A    between atoms: _449  and  _450
REMARK  178  A    between atoms: _453  and  _455
REMARK  179  A    between atoms: _455  and  _456
REMARK  180  A    between atoms: _455  and  _458
REMARK  181  A    between atoms: _461  and  _463
REMARK  182  A    between atoms: _463  and  _464
REMARK  183  A    between atoms: _463  and  _466
REMARK  184  A    between atoms: _466  and  _467
REMARK  185  A    between atoms: _467  and  _468
REMARK  186  A    between atoms: _468  and  _469
REMARK  187  A    between atoms: _478  and  _480
REMARK  188  A    between atoms: _480  and  _481
REMARK  189  A    between atoms: _480  and  _483
REMARK  190  A    between atoms: _483  and  _484
REMARK  191  A    between atoms: _484  and  _485
REMARK  192  A    between atoms: _488  and  _490
REMARK  193  A    between atoms: _490  and  _491
REMARK  194  A    between atoms: _490  and  _493
REMARK  195  A    between atoms: _493  and  _494
REMARK  196  A    between atoms: _497  and  _499
REMARK  197  A    between atoms: _499  and  _500
REMARK  198  A    between atoms: _503  and  _505
REMARK  199  A    between atoms: _505  and  _506
REMARK  200  A    between atoms: _505  and  _508
REMARK  201  A    between atoms: _508  and  _509
REMARK  202  A    between atoms: _509  and  _510
REMARK  203  A    between atoms: _512  and  _514
REMARK  204  A    between atoms: _514  and  _515
REMARK  205  A    between atoms: _514  and  _517
REMARK  206  A    between atoms: _517  and  _518
REMARK  207  A    between atoms: _520  and  _522
REMARK  208  A    between atoms: _522  and  _523
REMARK  209  A    between atoms: _522  and  _525
REMARK  210  A    between atoms: _525  and  _526
REMARK  211  A    between atoms: _528  and  _530
REMARK  212  A    between atoms: _530  and  _531
REMARK  213  A    between atoms: _530  and  _533
REMARK  214  A    between atoms: _533  and  _534
REMARK  215  A    between atoms: _534  and  _535
REMARK  216  A    between atoms: _535  and  _536
REMARK  217  A    between atoms: _545  and  _547
REMARK  218  A    between atoms: _547  and  _548
REMARK  219  A    between atoms: _547  and  _550
REMARK  220  A    between atoms: _550  and  _551
REMARK  221  A    between atoms: _556  and  _558
REMARK  222  A    between atoms: _558  and  _559
REMARK  223  A    between atoms: _558  and  _561
REMARK  224  A    between atoms: _561  and  _562
REMARK  225  A    between atoms: _565  and  _567
REMARK  226  A    between atoms: _567  and  _568
REMARK  227  A    between atoms: _567  and  _570
REMARK  228  A    between atoms: _570  and  _571
REMARK                            x       y       z     vdW  Elec       q    Type
REMARK                         _______ _______ _______ _____ _____    ______ ____
ROOT
ATOM      1  O   HOH     1      22.653   4.663   3.411  0.00  0.00    +0.000 OA
ENDROOT
TORSDOF 0
REMARK  Name = ../refined-set-2016/3coz/3coz_pocket.pdb
REMARK  228 active torsions:
REMARK  status: ('A' for Active; 'I' for Inactive)
REMARK    1  A    between atoms: _1  and  _3
REMARK    2  A    between atoms: _3  and  _4
REMARK    3  A    between atoms: _3  and  _6
REMARK    4  A    between atoms: _6  and  _7
REMARK    5  A    between atoms: _10  and  _12
REMARK    6  A    between atoms: _12  and  _13
REMARK    7  A    between atoms: _12  and  _15
REMARK    8  A    between atoms: _19  and  _20
REMARK    9  A    between atoms: _25  and  _27
REMARK   10  A    between atoms: _27  and  _28
REMARK   11  A    between atoms: _27  and  _30
REMARK   12  A    between atoms: _30  and  _31
REMARK   13  A    between atoms: _34  and  _36
REMARK   14  A    between atoms: _36  and  _37
REMARK   15  A    between atoms: _36  and  _39
REMARK   16  A    between atoms: _39  and  _40
REMARK   17  A    between atoms: _40  and  _41
REMARK   18  A    between atoms: _43  and  _45
REMARK   19  A    between atoms: _45  and  _46
REMARK   20  A    between atoms: _48  and  _50
REMARK   21  A    between atoms: _50  and  _51
REMARK   22  A    between atoms: _54  and  _56
REMARK   23  A    between atoms: _56  and  _57
REMARK   24  A    between atoms: _56  and  _59
REMARK   25  A    between atoms: _59  and  _60
REMARK   26  A    between atoms: _63  and  _65
REMARK   27  A    between atoms: _65  and  _66
REMARK   28  A    between atoms: _65  and  _68
REMARK   29  A    between atoms: _68  and  _69
REMARK   30  A    between atoms: _74  and  _76
REMARK   31  A    between atoms: _76  and  _77
REMARK   32  A    between atoms: _76  and  _79
REMARK   33  A    between atoms: _79  and  _80
REMARK   34  A    between atoms: _80  and  _81
REMARK   35  A    between atoms: _84  and  _86
REMARK   36  A    between atoms: _86  and  _87
REMARK   37  A    between atoms: _89  and  _91
REMARK   38  A    between atoms: _91  and  _92
REMARK   39  A    between atoms: _91  and  _94
REMARK   40  A    between atoms: _94  and  _95
REMARK   41  A    between atoms: _100  and  _102
REMARK   42  A    between atoms: _102  and  _103
REMARK   43  A    between atoms: _102  and  _105
REMARK   44  A    between atoms: _105  and  _106
REMARK   45  A    between atoms: _109  and  _111
REMARK   46  A    between atoms: _111  and  _112
REMARK   47  A    between atoms: _115  and  _117
REMARK   48  A    between atoms: _117  and  _118
REMARK   49  A    between atoms: _117  and  _120
REMARK   50  A    between atoms: _120  and  _121
REMARK   51  A    between atoms: _124  and  _126
REMARK   52  A    between atoms: _126  and  _127
REMARK   53  A    between atoms: _126  and  _129
REMARK   54  A    between atoms: _132  and  _134
REMARK   55  A    between atoms: _134  and  _135
REMARK   56  A    between atoms: _134  and  _137
REMARK   57  A    between atoms: _140  and  _142
REMARK   58  A    between atoms: _142  and  _143
REMARK   59  A    between atoms: _142  and  _145
REMARK   60  A    between atoms: _145  and  _146
REMARK   61  A    between atoms: _148  and  _150
REMARK   62  A    between atoms: _150  and  _151
REMARK   63  A    between atoms: _150  and  _153
REMARK   64  A    between atoms: _153  and  _154
REMARK   65  A    between atoms: _157  and  _159
REMARK   66  A    between atoms: _159  and  _160
REMARK   67  A    between atoms: _159  and  _162
REMARK   68  A    between atoms: _162  and  _163
REMARK   69  A    between atoms: _169  and  _171
REMARK   70  A    between atoms: _171  and  _172
REMARK   71  A    between atoms: _171  and  _174
REMARK   72  A    between atoms: _177  and  _179
REMARK   73  A    between atoms: _179  and  _180
REMARK   74  A    between atoms: _179  and  _182
REMARK   75  A    between atoms: _182  and  _183
REMARK   76  A    between atoms: _188  and  _190
REMARK   77  A    between atoms: _190  and  _191
REMARK   78  A    between atoms: _190  and  _193
REMARK   79  A    between atoms: _193  and  _194
REMARK   80  A    between atoms: _194  and  _195
REMARK   81  A    between atoms: _200  and  _202
REMARK   82  A    between atoms: _202  and  _203
REMARK   83  A    between atoms: _202  and  _205
REMARK   84  A    between atoms: _205  and  _206
REMARK   85  A    between atoms: _212  and  _214
REMARK   86  A    between atoms: _214  and  _215
REMARK   87  A    between atoms: _214  and  _217
REMARK   88  A    between atoms: _217  and  _218
REMARK   89  A    between atoms: _223  and  _224
REMARK   90  A    between atoms: _227  and  _228
REMARK   91  A    between atoms: _233  and  _235
REMARK   92  A    between atoms: _235  and  _236
REMARK   93  A    between atoms: _235  and  _238
REMARK   94  A    between atoms: _238  and  _239
REMARK   95  A    between atoms: _244  and  _246
REMARK   96  A    between atoms: _246  and  _247
REMARK   97  A    between atoms: _246  and  _249
REMARK   98  A    between atoms: _249  and  _250
REMARK   99  A    between atoms: _256  and  _258
REMARK  100  A    between atoms: _258  and  _259
REMARK  101  A    between atoms: _261  and  _263
REMARK  102  A    between atoms: _263  and  _264
REMARK  103  A    between atoms: _263  and  _266
REMARK  104  A    between atoms: _269  and  _271
REMARK  105  A    between atoms: _271  and  _272
REMARK  106  A    between atoms: _271  and  _274
REMARK  107  A    between atoms: _274  and  _275
REMARK  108  A    between atoms: _278  and  _280
REMARK  109  A    between atoms: _280  and  _281
REMARK  110  A    between atoms: _280  and  _283
REMARK  111  A    between atoms: _286  and  _288
REMARK  112  A    between atoms: _288  and  _289
REMARK  113  A    between atoms: _288  and  _291
REMARK  114  A    between atoms: _294  and  _296
REMARK  115  A    between atoms: _296  and  _297
REMARK  116  A    between atoms: _296  and  _299
REMARK  117  A    between atoms: _299  and  _300
REMARK  118  A    between atoms: _303  and  _305
REMARK  119  A    between atoms: _305  and  _306
REMARK  120  A    between atoms: _305  and  _308
REMARK  121  A    between atoms: _311  and  _313
REMARK  122  A    between atoms: _313  and  _314
REMARK  123  A    between atoms: _313  and  _316
REMARK  124  A    between atoms: _316  and  _317
REMARK  125  A    between atoms: _323  and  _325
REMARK  126  A    between atoms: _325  and  _326
REMARK  127  A    between atoms: _325  and  _328
REMARK  128  A    between atoms: _328  and  _329
REMARK  129  A    between atoms: _335  and  _337
REMARK  130  A    between atoms: _337  and  _338
REMARK  131  A    between atoms: _340  and  _342
REMARK  132  A    between atoms: _342  and  _343
REMARK  133  A    between atoms: _342  and  _345
REMARK  134  A    between atoms: _345  and  _346
REMARK  135  A    between atoms: _346  and  _347
REMARK  136  A    between atoms: _350  and  _352
REMARK  137  A    between atoms: _352  and  _353
REMARK  138  A    between atoms: _352  and  _355
REMARK  139  A    between atoms: _355  and  _356
REMARK  140  A    between atoms: _356  and  _357
REMARK  141  A    between atoms: _357  and  _358
REMARK  142  A    between atoms: _358  and  _359
REMARK  143  A    between atoms: _363  and  _365
REMARK  144  A    between atoms: _365  and  _366
REMARK  145  A    between atoms: _365  and  _368
REMARK  146  A    between atoms: _368  and  _369
REMARK  147  A    between atoms: _372  and  _374
REMARK  148  A    between atoms: _374  and  _375
REMARK  149  A    between atoms: _374  and  _377
REMARK  150  A    between atoms: _377  and  _378
REMARK  151  A    between atoms: _383  and  _384
REMARK  152  A    between atoms: _386  and  _388
REMARK  153  A    between atoms: _388  and  _389
REMARK  154  A    between atoms: _388  and  _391
REMARK  155  A    between atoms: _391  and  _392
REMARK  156  A    between atoms: _392  and  _393
REMARK  157  A    between atoms: _398  and  _400
REMARK  158  A    between atoms: _400  and  _401
REMARK  159  A    between atoms: _400  and  _403
REMARK  160  A    between atoms: _403  and  _404
REMARK  161  A    between atoms: _407  and  _409
REMARK  162  A    between atoms: _409  and  _410
REMARK  163  A    between atoms: _409  and  _412
REMARK  164  A    between atoms: _412  and  _413
REMARK  165  A    between atoms: _416  and  _418
REMARK  166  A    between atoms: _418  and  _419
REMARK  167  A    between atoms: _418  and  _421
REMARK  168  A    between atoms: _424  and  _426
REMARK  169  A    between atoms: _426  and  _427
REMARK  170  A    between atoms: _429  and  _431
REMARK  171  A    between atoms: _431  and  _432
REMARK  172  A    between atoms: _431  and  _434
REMARK  173  A    between atoms: _438  and  _439
REMARK  174  A    between atoms: _444  and  _446
REMARK  175  A    between atoms: _446  and  _447
REMARK  176  A    between atoms: _446  and  _449
REMARK  177  A    between atoms: _449  and  _450
REMARK  178  A    between atoms: _453  and  _455
REMARK  179  A    between atoms: _455  and  _456
REMARK  180  A    between atoms: _455  and  _458
REMARK  181  A    between atoms: _461  and  _463
REMARK  182  A    between atoms: _463  and  _464
REMARK  183  A    between atoms: _463  and  _466
REMARK  184  A    between atoms: _466  and  _467
REMARK  185  A    between atoms: _467  and  _468
REMARK  186  A    between atoms: _468  and  _469
REMARK  187  A    between atoms: _478  and  _480
REMARK  188  A    between atoms: _480  and  _481
REMARK  189  A    between atoms: _480  and  _483
REMARK  190  A    between atoms: _483  and  _484
REMARK  191  A    between atoms: _484  and  _485
REMARK  192  A    between atoms: _488  and  _490
REMARK  193  A    between atoms: _490  and  _491
REMARK  194  A    between atoms: _490  and  _493
REMARK  195  A    between atoms: _493  and  _494
REMARK  196  A    between atoms: _497  and  _499
REMARK  197  A    between atoms: _499  and  _500
REMARK  198  A    between atoms: _503  and  _505
REMARK  199  A    between atoms: _505  and  _506
REMARK  200  A    between atoms: _505  and  _508
REMARK  201  A    between atoms: _508  and  _509
REMARK  202  A    between atoms: _509  and  _510
REMARK  203  A    between atoms: _512  and  _514
REMARK  204  A    between atoms: _514  and  _515
REMARK  205  A    between atoms: _514  and  _517
REMARK  206  A    between atoms: _517  and  _518
REMARK  207  A    between atoms: _520  and  _522
REMARK  208  A    between atoms: _522  and  _523
REMARK  209  A    between atoms: _522  and  _525
REMARK  210  A    between atoms: _525  and  _526
REMARK  211  A    between atoms: _528  and  _530
REMARK  212  A    between atoms: _530  and  _531
REMARK  213  A    between atoms: _530  and  _533
REMARK  214  A    between atoms: _533  and  _534
REMARK  215  A    between atoms: _534  and  _535
REMARK  216  A    between atoms: _535  and  _536
REMARK  217  A    between atoms: _545  and  _547
REMARK  218  A    between atoms: _547  and  _548
REMARK  219  A    between atoms: _547  and  _550
REMARK  220  A    between atoms: _550  and  _551
REMARK  221  A    between atoms: _556  and  _558
REMARK  222  A    between atoms: _558  and  _559
REMARK  223  A    between atoms: _558  and  _561
REMARK  224  A    between atoms: _561  and  _562
REMARK  225  A    between atoms: _565  and  _567
REMARK  226  A    between atoms: _567  and  _568
REMARK  227  A    between atoms: _567  and  _570
REMARK  228  A    between atoms: _570  and  _571
REMARK                            x       y       z     vdW  Elec       q    Type
REMARK                         _______ _______ _______ _____ _____    ______ ____
ROOT
ATOM      1  O   HOH     1      12.976  10.607 -12.918  0.00  0.00    +0.000 OA
ENDROOT
TORSDOF 0
REMARK  Name = ../refined-set-2016/3coz/3coz_pocket.pdb
REMARK  228 active torsions:
REMARK  status: ('A' for Active; 'I' for Inactive)
REMARK    1  A    between atoms: _1  and  _3
REMARK    2  A    between atoms: _3  and  _4
REMARK    3  A    between atoms: _3  and  _6
REMARK    4  A    between atoms: _6  and  _7
REMARK    5  A    between atoms: _10  and  _12
REMARK    6  A    between atoms: _12  and  _13
REMARK    7  A    between atoms: _12  and  _15
REMARK    8  A    between atoms: _19  and  _20
REMARK    9  A    between atoms: _25  and  _27
REMARK   10  A    between atoms: _27  and  _28
REMARK   11  A    between atoms: _27  and  _30
REMARK   12  A    between atoms: _30  and  _31
REMARK   13  A    between atoms: _34  and  _36
REMARK   14  A    between atoms: _36  and  _37
REMARK   15  A    between atoms: _36  and  _39
REMARK   16  A    between atoms: _39  and  _40
REMARK   17  A    between atoms: _40  and  _41
REMARK   18  A    between atoms: _43  and  _45
REMARK   19  A    between atoms: _45  and  _46
REMARK   20  A    between atoms: _48  and  _50
REMARK   21  A    between atoms: _50  and  _51
REMARK   22  A    between atoms: _54  and  _56
REMARK   23  A    between atoms: _56  and  _57
REMARK   24  A    between atoms: _56  and  _59
REMARK   25  A    between atoms: _59  and  _60
REMARK   26  A    between atoms: _63  and  _65
REMARK   27  A    between atoms: _65  and  _66
REMARK   28  A    between atoms: _65  and  _68
REMARK   29  A    between atoms: _68  and  _69
REMARK   30  A    between atoms: _74  and  _76
REMARK   31  A    between atoms: _76  and  _77
REMARK   32  A    between atoms: _76  and  _79
REMARK   33  A    between atoms: _79  and  _80
REMARK   34  A    between atoms: _80  and  _81
REMARK   35  A    between atoms: _84  and  _86
REMARK   36  A    between atoms: _86  and  _87
REMARK   37  A    between atoms: _89  and  _91
REMARK   38  A    between atoms: _91  and  _92
REMARK   39  A    between atoms: _91  and  _94
REMARK   40  A    between atoms: _94  and  _95
REMARK   41  A    between atoms: _100  and  _102
REMARK   42  A    between atoms: _102  and  _103
REMARK   43  A    between atoms: _102  and  _105
REMARK   44  A    between atoms: _105  and  _106
REMARK   45  A    between atoms: _109  and  _111
REMARK   46  A    between atoms: _111  and  _112
REMARK   47  A    between atoms: _115  and  _117
REMARK   48  A    between atoms: _117  and  _118
REMARK   49  A    between atoms: _117  and  _120
REMARK   50  A    between atoms: _120  and  _121
REMARK   51  A    between atoms: _124  and  _126
REMARK   52  A    between atoms: _126  and  _127
REMARK   53  A    between atoms: _126  and  _129
REMARK   54  A    between atoms: _132  and  _134
REMARK   55  A    between atoms: _134  and  _135
REMARK   56  A    between atoms: _134  and  _137
REMARK   57  A    between atoms: _140  and  _142
REMARK   58  A    between atoms: _142  and  _143
REMARK   59  A    between atoms: _142  and  _145
REMARK   60  A    between atoms: _145  and  _146
REMARK   61  A    between atoms: _148  and  _150
REMARK   62  A    between atoms: _150  and  _151
REMARK   63  A    between atoms: _150  and  _153
REMARK   64  A    between atoms: _153  and  _154
REMARK   65  A    between atoms: _157  and  _159
REMARK   66  A    between atoms: _159  and  _160
REMARK   67  A    between atoms: _159  and  _162
REMARK   68  A    between atoms: _162  and  _163
REMARK   69  A    between atoms: _169  and  _171
REMARK   70  A    between atoms: _171  and  _172
REMARK   71  A    between atoms: _171  and  _174
REMARK   72  A    between atoms: _177  and  _179
REMARK   73  A    between atoms: _179  and  _180
REMARK   74  A    between atoms: _179  and  _182
REMARK   75  A    between atoms: _182  and  _183
REMARK   76  A    between atoms: _188  and  _190
REMARK   77  A    between atoms: _190  and  _191
REMARK   78  A    between atoms: _190  and  _193
REMARK   79  A    between atoms: _193  and  _194
REMARK   80  A    between atoms: _194  and  _195
REMARK   81  A    between atoms: _200  and  _202
REMARK   82  A    between atoms: _202  and  _203
REMARK   83  A    between atoms: _202  and  _205
REMARK   84  A    between atoms: _205  and  _206
REMARK   85  A    between atoms: _212  and  _214
REMARK   86  A    between atoms: _214  and  _215
REMARK   87  A    between atoms: _214  and  _217
REMARK   88  A    between atoms: _217  and  _218
REMARK   89  A    between atoms: _223  and  _224
REMARK   90  A    between atoms: _227  and  _228
REMARK   91  A    between atoms: _233  and  _235
REMARK   92  A    between atoms: _235  and  _236
REMARK   93  A    between atoms: _235  and  _238
REMARK   94  A    between atoms: _238  and  _239
REMARK   95  A    between atoms: _244  and  _246
REMARK   96  A    between atoms: _246  and  _247
REMARK   97  A    between atoms: _246  and  _249
REMARK   98  A    between atoms: _249  and  _250
REMARK   99  A    between atoms: _256  and  _258
REMARK  100  A    between atoms: _258  and  _259
REMARK  101  A    between atoms: _261  and  _263
REMARK  102  A    between atoms: _263  and  _264
REMARK  103  A    between atoms: _263  and  _266
REMARK  104  A    between atoms: _269  and  _271
REMARK  105  A    between atoms: _271  and  _272
REMARK  106  A    between atoms: _271  and  _274
REMARK  107  A    between atoms: _274  and  _275
REMARK  108  A    between atoms: _278  and  _280
REMARK  109  A    between atoms: _280  and  _281
REMARK  110  A    between atoms: _280  and  _283
REMARK  111  A    between atoms: _286  and  _288
REMARK  112  A    between atoms: _288  and  _289
REMARK  113  A    between atoms: _288  and  _291
REMARK  114  A    between atoms: _294  and  _296
REMARK  115  A    between atoms: _296  and  _297
REMARK  116  A    between atoms: _296  and  _299
REMARK  117  A    between atoms: _299  and  _300
REMARK  118  A    between atoms: _303  and  _305
REMARK  119  A    between atoms: _305  and  _306
REMARK  120  A    between atoms: _305  and  _308
REMARK  121  A    between atoms: _311  and  _313
REMARK  122  A    between atoms: _313  and  _314
REMARK  123  A    between atoms: _313  and  _316
REMARK  124  A    between atoms: _316  and  _317
REMARK  125  A    between atoms: _323  and  _325
REMARK  126  A    between atoms: _325  and  _326
REMARK  127  A    between atoms: _325  and  _328
REMARK  128  A    between atoms: _328  and  _329
REMARK  129  A    between atoms: _335  and  _337
REMARK  130  A    between atoms: _337  and  _338
REMARK  131  A    between atoms: _340  and  _342
REMARK  132  A    between atoms: _342  and  _343
REMARK  133  A    between atoms: _342  and  _345
REMARK  134  A    between atoms: _345  and  _346
REMARK  135  A    between atoms: _346  and  _347
REMARK  136  A    between atoms: _350  and  _352
REMARK  137  A    between atoms: _352  and  _353
REMARK  138  A    between atoms: _352  and  _355
REMARK  139  A    between atoms: _355  and  _356
REMARK  140  A    between atoms: _356  and  _357
REMARK  141  A    between atoms: _357  and  _358
REMARK  142  A    between atoms: _358  and  _359
REMARK  143  A    between atoms: _363  and  _365
REMARK  144  A    between atoms: _365  and  _366
REMARK  145  A    between atoms: _365  and  _368
REMARK  146  A    between atoms: _368  and  _369
REMARK  147  A    between atoms: _372  and  _374
REMARK  148  A    between atoms: _374  and  _375
REMARK  149  A    between atoms: _374  and  _377
REMARK  150  A    between atoms: _377  and  _378
REMARK  151  A    between atoms: _383  and  _384
REMARK  152  A    between atoms: _386  and  _388
REMARK  153  A    between atoms: _388  and  _389
REMARK  154  A    between atoms: _388  and  _391
REMARK  155  A    between atoms: _391  and  _392
REMARK  156  A    between atoms: _392  and  _393
REMARK  157  A    between atoms: _398  and  _400
REMARK  158  A    between atoms: _400  and  _401
REMARK  159  A    between atoms: _400  and  _403
REMARK  160  A    between atoms: _403  and  _404
REMARK  161  A    between atoms: _407  and  _409
REMARK  162  A    between atoms: _409  and  _410
REMARK  163  A    between atoms: _409  and  _412
REMARK  164  A    between atoms: _412  and  _413
REMARK  165  A    between atoms: _416  and  _418
REMARK  166  A    between atoms: _418  and  _419
REMARK  167  A    between atoms: _418  and  _421
REMARK  168  A    between atoms: _424  and  _426
REMARK  169  A    between atoms: _426  and  _427
REMARK  170  A    between atoms: _429  and  _431
REMARK  171  A    between atoms: _431  and  _432
REMARK  172  A    between atoms: _431  and  _434
REMARK  173  A    between atoms: _438  and  _439
REMARK  174  A    between atoms: _444  and  _446
REMARK  175  A    between atoms: _446  and  _447
REMARK  176  A    between atoms: _446  and  _449
REMARK  177  A    between atoms: _449  and  _450
REMARK  178  A    between atoms: _453  and  _455
REMARK  179  A    between atoms: _455  and  _456
REMARK  180  A    between atoms: _455  and  _458
REMARK  181  A    between atoms: _461  and  _463
REMARK  182  A    between atoms: _463  and  _464
REMARK  183  A    between atoms: _463  and  _466
REMARK  184  A    between atoms: _466  and  _467
REMARK  185  A    between atoms: _467  and  _468
REMARK  186  A    between atoms: _468  and  _469
REMARK  187  A    between atoms: _478  and  _480
REMARK  188  A    between atoms: _480  and  _481
REMARK  189  A    between atoms: _480  and  _483
REMARK  190  A    between atoms: _483  and  _484
REMARK  191  A    between atoms: _484  and  _485
REMARK  192  A    between atoms: _488  and  _490
REMARK  193  A    between atoms: _490  and  _491
REMARK  194  A    between atoms: _490  and  _493
REMARK  195  A    between atoms: _493  and  _494
REMARK  196  A    between atoms: _497  and  _499
REMARK  197  A    between atoms: _499  and  _500
REMARK  198  A    between atoms: _503  and  _505
REMARK  199  A    between atoms: _505  and  _506
REMARK  200  A    between atoms: _505  and  _508
REMARK  201  A    between atoms: _508  and  _509
REMARK  202  A    between atoms: _509  and  _510
REMARK  203  A    between atoms: _512  and  _514
REMARK  204  A    between atoms: _514  and  _515
REMARK  205  A    between atoms: _514  and  _517
REMARK  206  A    between atoms: _517  and  _518
REMARK  207  A    between atoms: _520  and  _522
REMARK  208  A    between atoms: _522  and  _523
REMARK  209  A    between atoms: _522  and  _525
REMARK  210  A    between atoms: _525  and  _526
REMARK  211  A    between atoms: _528  and  _530
REMARK  212  A    between atoms: _530  and  _531
REMARK  213  A    between atoms: _530  and  _533
REMARK  214  A    between atoms: _533  and  _534
REMARK  215  A    between atoms: _534  and  _535
REMARK  216  A    between atoms: _535  and  _536
REMARK  217  A    between atoms: _545  and  _547
REMARK  218  A    between atoms: _547  and  _548
REMARK  219  A    between atoms: _547  and  _550
REMARK  220  A    between atoms: _550  and  _551
REMARK  221  A    between atoms: _556  and  _558
REMARK  222  A    between atoms: _558  and  _559
REMARK  223  A    between atoms: _558  and  _561
REMARK  224  A    between atoms: _561  and  _562
REMARK  225  A    between atoms: _565  and  _567
REMARK  226  A    between atoms: _567  and  _568
REMARK  227  A    between atoms: _567  and  _570
REMARK  228  A    between atoms: _570  and  _571
REMARK                            x       y       z     vdW  Elec       q    Type
REMARK                         _______ _______ _______ _____ _____    ______ ____
ROOT
ATOM      1  O   HOH     1      15.742   3.061  -7.410  0.00  0.00    +0.000 OA
ENDROOT
TORSDOF 0
REMARK  Name = ../refined-set-2016/3coz/3coz_pocket.pdb
REMARK  228 active torsions:
REMARK  status: ('A' for Active; 'I' for Inactive)
REMARK    1  A    between atoms: _1  and  _3
REMARK    2  A    between atoms: _3  and  _4
REMARK    3  A    between atoms: _3  and  _6
REMARK    4  A    between atoms: _6  and  _7
REMARK    5  A    between atoms: _10  and  _12
REMARK    6  A    between atoms: _12  and  _13
REMARK    7  A    between atoms: _12  and  _15
REMARK    8  A    between atoms: _19  and  _20
REMARK    9  A    between atoms: _25  and  _27
REMARK   10  A    between atoms: _27  and  _28
REMARK   11  A    between atoms: _27  and  _30
REMARK   12  A    between atoms: _30  and  _31
REMARK   13  A    between atoms: _34  and  _36
REMARK   14  A    between atoms: _36  and  _37
REMARK   15  A    between atoms: _36  and  _39
REMARK   16  A    between atoms: _39  and  _40
REMARK   17  A    between atoms: _40  and  _41
REMARK   18  A    between atoms: _43  and  _45
REMARK   19  A    between atoms: _45  and  _46
REMARK   20  A    between atoms: _48  and  _50
REMARK   21  A    between atoms: _50  and  _51
REMARK   22  A    between atoms: _54  and  _56
REMARK   23  A    between atoms: _56  and  _57
REMARK   24  A    between atoms: _56  and  _59
REMARK   25  A    between atoms: _59  and  _60
REMARK   26  A    between atoms: _63  and  _65
REMARK   27  A    between atoms: _65  and  _66
REMARK   28  A    between atoms: _65  and  _68
REMARK   29  A    between atoms: _68  and  _69
REMARK   30  A    between atoms: _74  and  _76
REMARK   31  A    between atoms: _76  and  _77
REMARK   32  A    between atoms: _76  and  _79
REMARK   33  A    between atoms: _79  and  _80
REMARK   34  A    between atoms: _80  and  _81
REMARK   35  A    between atoms: _84  and  _86
REMARK   36  A    between atoms: _86  and  _87
REMARK   37  A    between atoms: _89  and  _91
REMARK   38  A    between atoms: _91  and  _92
REMARK   39  A    between atoms: _91  and  _94
REMARK   40  A    between atoms: _94  and  _95
REMARK   41  A    between atoms: _100  and  _102
REMARK   42  A    between atoms: _102  and  _103
REMARK   43  A    between atoms: _102  and  _105
REMARK   44  A    between atoms: _105  and  _106
REMARK   45  A    between atoms: _109  and  _111
REMARK   46  A    between atoms: _111  and  _112
REMARK   47  A    between atoms: _115  and  _117
REMARK   48  A    between atoms: _117  and  _118
REMARK   49  A    between atoms: _117  and  _120
REMARK   50  A    between atoms: _120  and  _121
REMARK   51  A    between atoms: _124  and  _126
REMARK   52  A    between atoms: _126  and  _127
REMARK   53  A    between atoms: _126  and  _129
REMARK   54  A    between atoms: _132  and  _134
REMARK   55  A    between atoms: _134  and  _135
REMARK   56  A    between atoms: _134  and  _137
REMARK   57  A    between atoms: _140  and  _142
REMARK   58  A    between atoms: _142  and  _143
REMARK   59  A    between atoms: _142  and  _145
REMARK   60  A    between atoms: _145  and  _146
REMARK   61  A    between atoms: _148  and  _150
REMARK   62  A    between atoms: _150  and  _151
REMARK   63  A    between atoms: _150  and  _153
REMARK   64  A    between atoms: _153  and  _154
REMARK   65  A    between atoms: _157  and  _159
REMARK   66  A    between atoms: _159  and  _160
REMARK   67  A    between atoms: _159  and  _162
REMARK   68  A    between atoms: _162  and  _163
REMARK   69  A    between atoms: _169  and  _171
REMARK   70  A    between atoms: _171  and  _172
REMARK   71  A    between atoms: _171  and  _174
REMARK   72  A    between atoms: _177  and  _179
REMARK   73  A    between atoms: _179  and  _180
REMARK   74  A    between atoms: _179  and  _182
REMARK   75  A    between atoms: _182  and  _183
REMARK   76  A    between atoms: _188  and  _190
REMARK   77  A    between atoms: _190  and  _191
REMARK   78  A    between atoms: _190  and  _193
REMARK   79  A    between atoms: _193  and  _194
REMARK   80  A    between atoms: _194  and  _195
REMARK   81  A    between atoms: _200  and  _202
REMARK   82  A    between atoms: _202  and  _203
REMARK   83  A    between atoms: _202  and  _205
REMARK   84  A    between atoms: _205  and  _206
REMARK   85  A    between atoms: _212  and  _214
REMARK   86  A    between atoms: _214  and  _215
REMARK   87  A    between atoms: _214  and  _217
REMARK   88  A    between atoms: _217  and  _218
REMARK   89  A    between atoms: _223  and  _224
REMARK   90  A    between atoms: _227  and  _228
REMARK   91  A    between atoms: _233  and  _235
REMARK   92  A    between atoms: _235  and  _236
REMARK   93  A    between atoms: _235  and  _238
REMARK   94  A    between atoms: _238  and  _239
REMARK   95  A    between atoms: _244  and  _246
REMARK   96  A    between atoms: _246  and  _247
REMARK   97  A    between atoms: _246  and  _249
REMARK   98  A    between atoms: _249  and  _250
REMARK   99  A    between atoms: _256  and  _258
REMARK  100  A    between atoms: _258  and  _259
REMARK  101  A    between atoms: _261  and  _263
REMARK  102  A    between atoms: _263  and  _264
REMARK  103  A    between atoms: _263  and  _266
REMARK  104  A    between atoms: _269  and  _271
REMARK  105  A    between atoms: _271  and  _272
REMARK  106  A    between atoms: _271  and  _274
REMARK  107  A    between atoms: _274  and  _275
REMARK  108  A    between atoms: _278  and  _280
REMARK  109  A    between atoms: _280  and  _281
REMARK  110  A    between atoms: _280  and  _283
REMARK  111  A    between atoms: _286  and  _288
REMARK  112  A    between atoms: _288  and  _289
REMARK  113  A    between atoms: _288  and  _291
REMARK  114  A    between atoms: _294  and  _296
REMARK  115  A    between atoms: _296  and  _297
REMARK  116  A    between atoms: _296  and  _299
REMARK  117  A    between atoms: _299  and  _300
REMARK  118  A    between atoms: _303  and  _305
REMARK  119  A    between atoms: _305  and  _306
REMARK  120  A    between atoms: _305  and  _308
REMARK  121  A    between atoms: _311  and  _313
REMARK  122  A    between atoms: _313  and  _314
REMARK  123  A    between atoms: _313  and  _316
REMARK  124  A    between atoms: _316  and  _317
REMARK  125  A    between atoms: _323  and  _325
REMARK  126  A    between atoms: _325  and  _326
REMARK  127  A    between atoms: _325  and  _328
REMARK  128  A    between atoms: _328  and  _329
REMARK  129  A    between atoms: _335  and  _337
REMARK  130  A    between atoms: _337  and  _338
REMARK  131  A    between atoms: _340  and  _342
REMARK  132  A    between atoms: _342  and  _343
REMARK  133  A    between atoms: _342  and  _345
REMARK  134  A    between atoms: _345  and  _346
REMARK  135  A    between atoms: _346  and  _347
REMARK  136  A    between atoms: _350  and  _352
REMARK  137  A    between atoms: _352  and  _353
REMARK  138  A    between atoms: _352  and  _355
REMARK  139  A    between atoms: _355  and  _356
REMARK  140  A    between atoms: _356  and  _357
REMARK  141  A    between atoms: _357  and  _358
REMARK  142  A    between atoms: _358  and  _359
REMARK  143  A    between atoms: _363  and  _365
REMARK  144  A    between atoms: _365  and  _366
REMARK  145  A    between atoms: _365  and  _368
REMARK  146  A    between atoms: _368  and  _369
REMARK  147  A    between atoms: _372  and  _374
REMARK  148  A    between atoms: _374  and  _375
REMARK  149  A    between atoms: _374  and  _377
REMARK  150  A    between atoms: _377  and  _378
REMARK  151  A    between atoms: _383  and  _384
REMARK  152  A    between atoms: _386  and  _388
REMARK  153  A    between atoms: _388  and  _389
REMARK  154  A    between atoms: _388  and  _391
REMARK  155  A    between atoms: _391  and  _392
REMARK  156  A    between atoms: _392  and  _393
REMARK  157  A    between atoms: _398  and  _400
REMARK  158  A    between atoms: _400  and  _401
REMARK  159  A    between atoms: _400  and  _403
REMARK  160  A    between atoms: _403  and  _404
REMARK  161  A    between atoms: _407  and  _409
REMARK  162  A    between atoms: _409  and  _410
REMARK  163  A    between atoms: _409  and  _412
REMARK  164  A    between atoms: _412  and  _413
REMARK  165  A    between atoms: _416  and  _418
REMARK  166  A    between atoms: _418  and  _419
REMARK  167  A    between atoms: _418  and  _421
REMARK  168  A    between atoms: _424  and  _426
REMARK  169  A    between atoms: _426  and  _427
REMARK  170  A    between atoms: _429  and  _431
REMARK  171  A    between atoms: _431  and  _432
REMARK  172  A    between atoms: _431  and  _434
REMARK  173  A    between atoms: _438  and  _439
REMARK  174  A    between atoms: _444  and  _446
REMARK  175  A    between atoms: _446  and  _447
REMARK  176  A    between atoms: _446  and  _449
REMARK  177  A    between atoms: _449  and  _450
REMARK  178  A    between atoms: _453  and  _455
REMARK  179  A    between atoms: _455  and  _456
REMARK  180  A    between atoms: _455  and  _458
REMARK  181  A    between atoms: _461  and  _463
REMARK  182  A    between atoms: _463  and  _464
REMARK  183  A    between atoms: _463  and  _466
REMARK  184  A    between atoms: _466  and  _467
REMARK  185  A    between atoms: _467  and  _468
REMARK  186  A    between atoms: _468  and  _469
REMARK  187  A    between atoms: _478  and  _480
REMARK  188  A    between atoms: _480  and  _481
REMARK  189  A    between atoms: _480  and  _483
REMARK  190  A    between atoms: _483  and  _484
REMARK  191  A    between atoms: _484  and  _485
REMARK  192  A    between atoms: _488  and  _490
REMARK  193  A    between atoms: _490  and  _491
REMARK  194  A    between atoms: _490  and  _493
REMARK  195  A    between atoms: _493  and  _494
REMARK  196  A    between atoms: _497  and  _499
REMARK  197  A    between atoms: _499  and  _500
REMARK  198  A    between atoms: _503  and  _505
REMARK  199  A    between atoms: _505  and  _506
REMARK  200  A    between atoms: _505  and  _508
REMARK  201  A    between atoms: _508  and  _509
REMARK  202  A    between atoms: _509  and  _510
REMARK  203  A    between atoms: _512  and  _514
REMARK  204  A    between atoms: _514  and  _515
REMARK  205  A    between atoms: _514  and  _517
REMARK  206  A    between atoms: _517  and  _518
REMARK  207  A    between atoms: _520  and  _522
REMARK  208  A    between atoms: _522  and  _523
REMARK  209  A    between atoms: _522  and  _525
REMARK  210  A    between atoms: _525  and  _526
REMARK  211  A    between atoms: _528  and  _530
REMARK  212  A    between atoms: _530  and  _531
REMARK  213  A    between atoms: _530  and  _533
REMARK  214  A    between atoms: _533  and  _534
REMARK  215  A    between atoms: _534  and  _535
REMARK  216  A    between atoms: _535  and  _536
REMARK  217  A    between atoms: _545  and  _547
REMARK  218  A    between atoms: _547  and  _548
REMARK  219  A    between atoms: _547  and  _550
REMARK  220  A    between atoms: _550  and  _551
REMARK  221  A    between atoms: _556  and  _558
REMARK  222  A    between atoms: _558  and  _559
REMARK  223  A    between atoms: _558  and  _561
REMARK  224  A    between atoms: _561  and  _562
REMARK  225  A    between atoms: _565  and  _567
REMARK  226  A    between atoms: _567  and  _568
REMARK  227  A    between atoms: _567  and  _570
REMARK  228  A    between atoms: _570  and  _571
REMARK                            x       y       z     vdW  Elec       q    Type
REMARK                         _______ _______ _______ _____ _____    ______ ____
ROOT
ATOM      1  O   HOH     1      22.072   9.514  -0.419  0.00  0.00    +0.000 OA
ENDROOT
TORSDOF 0
REMARK  Name = ../refined-set-2016/3coz/3coz_pocket.pdb
REMARK  228 active torsions:
REMARK  status: ('A' for Active; 'I' for Inactive)
REMARK    1  A    between atoms: _1  and  _3
REMARK    2  A    between atoms: _3  and  _4
REMARK    3  A    between atoms: _3  and  _6
REMARK    4  A    between atoms: _6  and  _7
REMARK    5  A    between atoms: _10  and  _12
REMARK    6  A    between atoms: _12  and  _13
REMARK    7  A    between atoms: _12  and  _15
REMARK    8  A    between atoms: _19  and  _20
REMARK    9  A    between atoms: _25  and  _27
REMARK   10  A    between atoms: _27  and  _28
REMARK   11  A    between atoms: _27  and  _30
REMARK   12  A    between atoms: _30  and  _31
REMARK   13  A    between atoms: _34  and  _36
REMARK   14  A    between atoms: _36  and  _37
REMARK   15  A    between atoms: _36  and  _39
REMARK   16  A    between atoms: _39  and  _40
REMARK   17  A    between atoms: _40  and  _41
REMARK   18  A    between atoms: _43  and  _45
REMARK   19  A    between atoms: _45  and  _46
REMARK   20  A    between atoms: _48  and  _50
REMARK   21  A    between atoms: _50  and  _51
REMARK   22  A    between atoms: _54  and  _56
REMARK   23  A    between atoms: _56  and  _57
REMARK   24  A    between atoms: _56  and  _59
REMARK   25  A    between atoms: _59  and  _60
REMARK   26  A    between atoms: _63  and  _65
REMARK   27  A    between atoms: _65  and  _66
REMARK   28  A    between atoms: _65  and  _68
REMARK   29  A    between atoms: _68  and  _69
REMARK   30  A    between atoms: _74  and  _76
REMARK   31  A    between atoms: _76  and  _77
REMARK   32  A    between atoms: _76  and  _79
REMARK   33  A    between atoms: _79  and  _80
REMARK   34  A    between atoms: _80  and  _81
REMARK   35  A    between atoms: _84  and  _86
REMARK   36  A    between atoms: _86  and  _87
REMARK   37  A    between atoms: _89  and  _91
REMARK   38  A    between atoms: _91  and  _92
REMARK   39  A    between atoms: _91  and  _94
REMARK   40  A    between atoms: _94  and  _95
REMARK   41  A    between atoms: _100  and  _102
REMARK   42  A    between atoms: _102  and  _103
REMARK   43  A    between atoms: _102  and  _105
REMARK   44  A    between atoms: _105  and  _106
REMARK   45  A    between atoms: _109  and  _111
REMARK   46  A    between atoms: _111  and  _112
REMARK   47  A    between atoms: _115  and  _117
REMARK   48  A    between atoms: _117  and  _118
REMARK   49  A    between atoms: _117  and  _120
REMARK   50  A    between atoms: _120  and  _121
REMARK   51  A    between atoms: _124  and  _126
REMARK   52  A    between atoms: _126  and  _127
REMARK   53  A    between atoms: _126  and  _129
REMARK   54  A    between atoms: _132  and  _134
REMARK   55  A    between atoms: _134  and  _135
REMARK   56  A    between atoms: _134  and  _137
REMARK   57  A    between atoms: _140  and  _142
REMARK   58  A    between atoms: _142  and  _143
REMARK   59  A    between atoms: _142  and  _145
REMARK   60  A    between atoms: _145  and  _146
REMARK   61  A    between atoms: _148  and  _150
REMARK   62  A    between atoms: _150  and  _151
REMARK   63  A    between atoms: _150  and  _153
REMARK   64  A    between atoms: _153  and  _154
REMARK   65  A    between atoms: _157  and  _159
REMARK   66  A    between atoms: _159  and  _160
REMARK   67  A    between atoms: _159  and  _162
REMARK   68  A    between atoms: _162  and  _163
REMARK   69  A    between atoms: _169  and  _171
REMARK   70  A    between atoms: _171  and  _172
REMARK   71  A    between atoms: _171  and  _174
REMARK   72  A    between atoms: _177  and  _179
REMARK   73  A    between atoms: _179  and  _180
REMARK   74  A    between atoms: _179  and  _182
REMARK   75  A    between atoms: _182  and  _183
REMARK   76  A    between atoms: _188  and  _190
REMARK   77  A    between atoms: _190  and  _191
REMARK   78  A    between atoms: _190  and  _193
REMARK   79  A    between atoms: _193  and  _194
REMARK   80  A    between atoms: _194  and  _195
REMARK   81  A    between atoms: _200  and  _202
REMARK   82  A    between atoms: _202  and  _203
REMARK   83  A    between atoms: _202  and  _205
REMARK   84  A    between atoms: _205  and  _206
REMARK   85  A    between atoms: _212  and  _214
REMARK   86  A    between atoms: _214  and  _215
REMARK   87  A    between atoms: _214  and  _217
REMARK   88  A    between atoms: _217  and  _218
REMARK   89  A    between atoms: _223  and  _224
REMARK   90  A    between atoms: _227  and  _228
REMARK   91  A    between atoms: _233  and  _235
REMARK   92  A    between atoms: _235  and  _236
REMARK   93  A    between atoms: _235  and  _238
REMARK   94  A    between atoms: _238  and  _239
REMARK   95  A    between atoms: _244  and  _246
REMARK   96  A    between atoms: _246  and  _247
REMARK   97  A    between atoms: _246  and  _249
REMARK   98  A    between atoms: _249  and  _250
REMARK   99  A    between atoms: _256  and  _258
REMARK  100  A    between atoms: _258  and  _259
REMARK  101  A    between atoms: _261  and  _263
REMARK  102  A    between atoms: _263  and  _264
REMARK  103  A    between atoms: _263  and  _266
REMARK  104  A    between atoms: _269  and  _271
REMARK  105  A    between atoms: _271  and  _272
REMARK  106  A    between atoms: _271  and  _274
REMARK  107  A    between atoms: _274  and  _275
REMARK  108  A    between atoms: _278  and  _280
REMARK  109  A    between atoms: _280  and  _281
REMARK  110  A    between atoms: _280  and  _283
REMARK  111  A    between atoms: _286  and  _288
REMARK  112  A    between atoms: _288  and  _289
REMARK  113  A    between atoms: _288  and  _291
REMARK  114  A    between atoms: _294  and  _296
REMARK  115  A    between atoms: _296  and  _297
REMARK  116  A    between atoms: _296  and  _299
REMARK  117  A    between atoms: _299  and  _300
REMARK  118  A    between atoms: _303  and  _305
REMARK  119  A    between atoms: _305  and  _306
REMARK  120  A    between atoms: _305  and  _308
REMARK  121  A    between atoms: _311  and  _313
REMARK  122  A    between atoms: _313  and  _314
REMARK  123  A    between atoms: _313  and  _316
REMARK  124  A    between atoms: _316  and  _317
REMARK  125  A    between atoms: _323  and  _325
REMARK  126  A    between atoms: _325  and  _326
REMARK  127  A    between atoms: _325  and  _328
REMARK  128  A    between atoms: _328  and  _329
REMARK  129  A    between atoms: _335  and  _337
REMARK  130  A    between atoms: _337  and  _338
REMARK  131  A    between atoms: _340  and  _342
REMARK  132  A    between atoms: _342  and  _343
REMARK  133  A    between atoms: _342  and  _345
REMARK  134  A    between atoms: _345  and  _346
REMARK  135  A    between atoms: _346  and  _347
REMARK  136  A    between atoms: _350  and  _352
REMARK  137  A    between atoms: _352  and  _353
REMARK  138  A    between atoms: _352  and  _355
REMARK  139  A    between atoms: _355  and  _356
REMARK  140  A    between atoms: _356  and  _357
REMARK  141  A    between atoms: _357  and  _358
REMARK  142  A    between atoms: _358  and  _359
REMARK  143  A    between atoms: _363  and  _365
REMARK  144  A    between atoms: _365  and  _366
REMARK  145  A    between atoms: _365  and  _368
REMARK  146  A    between atoms: _368  and  _369
REMARK  147  A    between atoms: _372  and  _374
REMARK  148  A    between atoms: _374  and  _375
REMARK  149  A    between atoms: _374  and  _377
REMARK  150  A    between atoms: _377  and  _378
REMARK  151  A    between atoms: _383  and  _384
REMARK  152  A    between atoms: _386  and  _388
REMARK  153  A    between atoms: _388  and  _389
REMARK  154  A    between atoms: _388  and  _391
REMARK  155  A    between atoms: _391  and  _392
REMARK  156  A    between atoms: _392  and  _393
REMARK  157  A    between atoms: _398  and  _400
REMARK  158  A    between atoms: _400  and  _401
REMARK  159  A    between atoms: _400  and  _403
REMARK  160  A    between atoms: _403  and  _404
REMARK  161  A    between atoms: _407  and  _409
REMARK  162  A    between atoms: _409  and  _410
REMARK  163  A    between atoms: _409  and  _412
REMARK  164  A    between atoms: _412  and  _413
REMARK  165  A    between atoms: _416  and  _418
REMARK  166  A    between atoms: _418  and  _419
REMARK  167  A    between atoms: _418  and  _421
REMARK  168  A    between atoms: _424  and  _426
REMARK  169  A    between atoms: _426  and  _427
REMARK  170  A    between atoms: _429  and  _431
REMARK  171  A    between atoms: _431  and  _432
REMARK  172  A    between atoms: _431  and  _434
REMARK  173  A    between atoms: _438  and  _439
REMARK  174  A    between atoms: _444  and  _446
REMARK  175  A    between atoms: _446  and  _447
REMARK  176  A    between atoms: _446  and  _449
REMARK  177  A    between atoms: _449  and  _450
REMARK  178  A    between atoms: _453  and  _455
REMARK  179  A    between atoms: _455  and  _456
REMARK  180  A    between atoms: _455  and  _458
REMARK  181  A    between atoms: _461  and  _463
REMARK  182  A    between atoms: _463  and  _464
REMARK  183  A    between atoms: _463  and  _466
REMARK  184  A    between atoms: _466  and  _467
REMARK  185  A    between atoms: _467  and  _468
REMARK  186  A    between atoms: _468  and  _469
REMARK  187  A    between atoms: _478  and  _480
REMARK  188  A    between atoms: _480  and  _481
REMARK  189  A    between atoms: _480  and  _483
REMARK  190  A    between atoms: _483  and  _484
REMARK  191  A    between atoms: _484  and  _485
REMARK  192  A    between atoms: _488  and  _490
REMARK  193  A    between atoms: _490  and  _491
REMARK  194  A    between atoms: _490  and  _493
REMARK  195  A    between atoms: _493  and  _494
REMARK  196  A    between atoms: _497  and  _499
REMARK  197  A    between atoms: _499  and  _500
REMARK  198  A    between atoms: _503  and  _505
REMARK  199  A    between atoms: _505  and  _506
REMARK  200  A    between atoms: _505  and  _508
REMARK  201  A    between atoms: _508  and  _509
REMARK  202  A    between atoms: _509  and  _510
REMARK  203  A    between atoms: _512  and  _514
REMARK  204  A    between atoms: _514  and  _515
REMARK  205  A    between atoms: _514  and  _517
REMARK  206  A    between atoms: _517  and  _518
REMARK  207  A    between atoms: _520  and  _522
REMARK  208  A    between atoms: _522  and  _523
REMARK  209  A    between atoms: _522  and  _525
REMARK  210  A    between atoms: _525  and  _526
REMARK  211  A    between atoms: _528  and  _530
REMARK  212  A    between atoms: _530  and  _531
REMARK  213  A    between atoms: _530  and  _533
REMARK  214  A    between atoms: _533  and  _534
REMARK  215  A    between atoms: _534  and  _535
REMARK  216  A    between atoms: _535  and  _536
REMARK  217  A    between atoms: _545  and  _547
REMARK  218  A    between atoms: _547  and  _548
REMARK  219  A    between atoms: _547  and  _550
REMARK  220  A    between atoms: _550  and  _551
REMARK  221  A    between atoms: _556  and  _558
REMARK  222  A    between atoms: _558  and  _559
REMARK  223  A    between atoms: _558  and  _561
REMARK  224  A    between atoms: _561  and  _562
REMARK  225  A    between atoms: _565  and  _567
REMARK  226  A    between atoms: _567  and  _568
REMARK  227  A    between atoms: _567  and  _570
REMARK  228  A    between atoms: _570  and  _571
REMARK                            x       y       z     vdW  Elec       q    Type
REMARK                         _______ _______ _______ _____ _____    ______ ____
ROOT
ATOM      1  O   HOH     1      19.612   8.091   4.159  0.00  0.00    +0.000 OA
ENDROOT
TORSDOF 0
REMARK  Name = ../refined-set-2016/3coz/3coz_pocket.pdb
REMARK  228 active torsions:
REMARK  status: ('A' for Active; 'I' for Inactive)
REMARK    1  A    between atoms: _1  and  _3
REMARK    2  A    between atoms: _3  and  _4
REMARK    3  A    between atoms: _3  and  _6
REMARK    4  A    between atoms: _6  and  _7
REMARK    5  A    between atoms: _10  and  _12
REMARK    6  A    between atoms: _12  and  _13
REMARK    7  A    between atoms: _12  and  _15
REMARK    8  A    between atoms: _19  and  _20
REMARK    9  A    between atoms: _25  and  _27
REMARK   10  A    between atoms: _27  and  _28
REMARK   11  A    between atoms: _27  and  _30
REMARK   12  A    between atoms: _30  and  _31
REMARK   13  A    between atoms: _34  and  _36
REMARK   14  A    between atoms: _36  and  _37
REMARK   15  A    between atoms: _36  and  _39
REMARK   16  A    between atoms: _39  and  _40
REMARK   17  A    between atoms: _40  and  _41
REMARK   18  A    between atoms: _43  and  _45
REMARK   19  A    between atoms: _45  and  _46
REMARK   20  A    between atoms: _48  and  _50
REMARK   21  A    between atoms: _50  and  _51
REMARK   22  A    between atoms: _54  and  _56
REMARK   23  A    between atoms: _56  and  _57
REMARK   24  A    between atoms: _56  and  _59
REMARK   25  A    between atoms: _59  and  _60
REMARK   26  A    between atoms: _63  and  _65
REMARK   27  A    between atoms: _65  and  _66
REMARK   28  A    between atoms: _65  and  _68
REMARK   29  A    between atoms: _68  and  _69
REMARK   30  A    between atoms: _74  and  _76
REMARK   31  A    between atoms: _76  and  _77
REMARK   32  A    between atoms: _76  and  _79
REMARK   33  A    between atoms: _79  and  _80
REMARK   34  A    between atoms: _80  and  _81
REMARK   35  A    between atoms: _84  and  _86
REMARK   36  A    between atoms: _86  and  _87
REMARK   37  A    between atoms: _89  and  _91
REMARK   38  A    between atoms: _91  and  _92
REMARK   39  A    between atoms: _91  and  _94
REMARK   40  A    between atoms: _94  and  _95
REMARK   41  A    between atoms: _100  and  _102
REMARK   42  A    between atoms: _102  and  _103
REMARK   43  A    between atoms: _102  and  _105
REMARK   44  A    between atoms: _105  and  _106
REMARK   45  A    between atoms: _109  and  _111
REMARK   46  A    between atoms: _111  and  _112
REMARK   47  A    between atoms: _115  and  _117
REMARK   48  A    between atoms: _117  and  _118
REMARK   49  A    between atoms: _117  and  _120
REMARK   50  A    between atoms: _120  and  _121
REMARK   51  A    between atoms: _124  and  _126
REMARK   52  A    between atoms: _126  and  _127
REMARK   53  A    between atoms: _126  and  _129
REMARK   54  A    between atoms: _132  and  _134
REMARK   55  A    between atoms: _134  and  _135
REMARK   56  A    between atoms: _134  and  _137
REMARK   57  A    between atoms: _140  and  _142
REMARK   58  A    between atoms: _142  and  _143
REMARK   59  A    between atoms: _142  and  _145
REMARK   60  A    between atoms: _145  and  _146
REMARK   61  A    between atoms: _148  and  _150
REMARK   62  A    between atoms: _150  and  _151
REMARK   63  A    between atoms: _150  and  _153
REMARK   64  A    between atoms: _153  and  _154
REMARK   65  A    between atoms: _157  and  _159
REMARK   66  A    between atoms: _159  and  _160
REMARK   67  A    between atoms: _159  and  _162
REMARK   68  A    between atoms: _162  and  _163
REMARK   69  A    between atoms: _169  and  _171
REMARK   70  A    between atoms: _171  and  _172
REMARK   71  A    between atoms: _171  and  _174
REMARK   72  A    between atoms: _177  and  _179
REMARK   73  A    between atoms: _179  and  _180
REMARK   74  A    between atoms: _179  and  _182
REMARK   75  A    between atoms: _182  and  _183
REMARK   76  A    between atoms: _188  and  _190
REMARK   77  A    between atoms: _190  and  _191
REMARK   78  A    between atoms: _190  and  _193
REMARK   79  A    between atoms: _193  and  _194
REMARK   80  A    between atoms: _194  and  _195
REMARK   81  A    between atoms: _200  and  _202
REMARK   82  A    between atoms: _202  and  _203
REMARK   83  A    between atoms: _202  and  _205
REMARK   84  A    between atoms: _205  and  _206
REMARK   85  A    between atoms: _212  and  _214
REMARK   86  A    between atoms: _214  and  _215
REMARK   87  A    between atoms: _214  and  _217
REMARK   88  A    between atoms: _217  and  _218
REMARK   89  A    between atoms: _223  and  _224
REMARK   90  A    between atoms: _227  and  _228
REMARK   91  A    between atoms: _233  and  _235
REMARK   92  A    between atoms: _235  and  _236
REMARK   93  A    between atoms: _235  and  _238
REMARK   94  A    between atoms: _238  and  _239
REMARK   95  A    between atoms: _244  and  _246
REMARK   96  A    between atoms: _246  and  _247
REMARK   97  A    between atoms: _246  and  _249
REMARK   98  A    between atoms: _249  and  _250
REMARK   99  A    between atoms: _256  and  _258
REMARK  100  A    between atoms: _258  and  _259
REMARK  101  A    between atoms: _261  and  _263
REMARK  102  A    between atoms: _263  and  _264
REMARK  103  A    between atoms: _263  and  _266
REMARK  104  A    between atoms: _269  and  _271
REMARK  105  A    between atoms: _271  and  _272
REMARK  106  A    between atoms: _271  and  _274
REMARK  107  A    between atoms: _274  and  _275
REMARK  108  A    between atoms: _278  and  _280
REMARK  109  A    between atoms: _280  and  _281
REMARK  110  A    between atoms: _280  and  _283
REMARK  111  A    between atoms: _286  and  _288
REMARK  112  A    between atoms: _288  and  _289
REMARK  113  A    between atoms: _288  and  _291
REMARK  114  A    between atoms: _294  and  _296
REMARK  115  A    between atoms: _296  and  _297
REMARK  116  A    between atoms: _296  and  _299
REMARK  117  A    between atoms: _299  and  _300
REMARK  118  A    between atoms: _303  and  _305
REMARK  119  A    between atoms: _305  and  _306
REMARK  120  A    between atoms: _305  and  _308
REMARK  121  A    between atoms: _311  and  _313
REMARK  122  A    between atoms: _313  and  _314
REMARK  123  A    between atoms: _313  and  _316
REMARK  124  A    between atoms: _316  and  _317
REMARK  125  A    between atoms: _323  and  _325
REMARK  126  A    between atoms: _325  and  _326
REMARK  127  A    between atoms: _325  and  _328
REMARK  128  A    between atoms: _328  and  _329
REMARK  129  A    between atoms: _335  and  _337
REMARK  130  A    between atoms: _337  and  _338
REMARK  131  A    between atoms: _340  and  _342
REMARK  132  A    between atoms: _342  and  _343
REMARK  133  A    between atoms: _342  and  _345
REMARK  134  A    between atoms: _345  and  _346
REMARK  135  A    between atoms: _346  and  _347
REMARK  136  A    between atoms: _350  and  _352
REMARK  137  A    between atoms: _352  and  _353
REMARK  138  A    between atoms: _352  and  _355
REMARK  139  A    between atoms: _355  and  _356
REMARK  140  A    between atoms: _356  and  _357
REMARK  141  A    between atoms: _357  and  _358
REMARK  142  A    between atoms: _358  and  _359
REMARK  143  A    between atoms: _363  and  _365
REMARK  144  A    between atoms: _365  and  _366
REMARK  145  A    between atoms: _365  and  _368
REMARK  146  A    between atoms: _368  and  _369
REMARK  147  A    between atoms: _372  and  _374
REMARK  148  A    between atoms: _374  and  _375
REMARK  149  A    between atoms: _374  and  _377
REMARK  150  A    between atoms: _377  and  _378
REMARK  151  A    between atoms: _383  and  _384
REMARK  152  A    between atoms: _386  and  _388
REMARK  153  A    between atoms: _388  and  _389
REMARK  154  A    between atoms: _388  and  _391
REMARK  155  A    between atoms: _391  and  _392
REMARK  156  A    between atoms: _392  and  _393
REMARK  157  A    between atoms: _398  and  _400
REMARK  158  A    between atoms: _400  and  _401
REMARK  159  A    between atoms: _400  and  _403
REMARK  160  A    between atoms: _403  and  _404
REMARK  161  A    between atoms: _407  and  _409
REMARK  162  A    between atoms: _409  and  _410
REMARK  163  A    between atoms: _409  and  _412
REMARK  164  A    between atoms: _412  and  _413
REMARK  165  A    between atoms: _416  and  _418
REMARK  166  A    between atoms: _418  and  _419
REMARK  167  A    between atoms: _418  and  _421
REMARK  168  A    between atoms: _424  and  _426
REMARK  169  A    between atoms: _426  and  _427
REMARK  170  A    between atoms: _429  and  _431
REMARK  171  A    between atoms: _431  and  _432
REMARK  172  A    between atoms: _431  and  _434
REMARK  173  A    between atoms: _438  and  _439
REMARK  174  A    between atoms: _444  and  _446
REMARK  175  A    between atoms: _446  and  _447
REMARK  176  A    between atoms: _446  and  _449
REMARK  177  A    between atoms: _449  and  _450
REMARK  178  A    between atoms: _453  and  _455
REMARK  179  A    between atoms: _455  and  _456
REMARK  180  A    between atoms: _455  and  _458
REMARK  181  A    between atoms: _461  and  _463
REMARK  182  A    between atoms: _463  and  _464
REMARK  183  A    between atoms: _463  and  _466
REMARK  184  A    between atoms: _466  and  _467
REMARK  185  A    between atoms: _467  and  _468
REMARK  186  A    between atoms: _468  and  _469
REMARK  187  A    between atoms: _478  and  _480
REMARK  188  A    between atoms: _480  and  _481
REMARK  189  A    between atoms: _480  and  _483
REMARK  190  A    between atoms: _483  and  _484
REMARK  191  A    between atoms: _484  and  _485
REMARK  192  A    between atoms: _488  and  _490
REMARK  193  A    between atoms: _490  and  _491
REMARK  194  A    between atoms: _490  and  _493
REMARK  195  A    between atoms: _493  and  _494
REMARK  196  A    between atoms: _497  and  _499
REMARK  197  A    between atoms: _499  and  _500
REMARK  198  A    between atoms: _503  and  _505
REMARK  199  A    between atoms: _505  and  _506
REMARK  200  A    between atoms: _505  and  _508
REMARK  201  A    between atoms: _508  and  _509
REMARK  202  A    between atoms: _509  and  _510
REMARK  203  A    between atoms: _512  and  _514
REMARK  204  A    between atoms: _514  and  _515
REMARK  205  A    between atoms: _514  and  _517
REMARK  206  A    between atoms: _517  and  _518
REMARK  207  A    between atoms: _520  and  _522
REMARK  208  A    between atoms: _522  and  _523
REMARK  209  A    between atoms: _522  and  _525
REMARK  210  A    between atoms: _525  and  _526
REMARK  211  A    between atoms: _528  and  _530
REMARK  212  A    between atoms: _530  and  _531
REMARK  213  A    between atoms: _530  and  _533
REMARK  214  A    between atoms: _533  and  _534
REMARK  215  A    between atoms: _534  and  _535
REMARK  216  A    between atoms: _535  and  _536
REMARK  217  A    between atoms: _545  and  _547
REMARK  218  A    between atoms: _547  and  _548
REMARK  219  A    between atoms: _547  and  _550
REMARK  220  A    between atoms: _550  and  _551
REMARK  221  A    between atoms: _556  and  _558
REMARK  222  A    between atoms: _558  and  _559
REMARK  223  A    between atoms: _558  and  _561
REMARK  224  A    between atoms: _561  and  _562
REMARK  225  A    between atoms: _565  and  _567
REMARK  226  A    between atoms: _567  and  _568
REMARK  227  A    between atoms: _567  and  _570
REMARK  228  A    between atoms: _570  and  _571
REMARK                            x       y       z     vdW  Elec       q    Type
REMARK                         _______ _______ _______ _____ _____    ______ ____
ROOT
ATOM      1  O   HOH     1      18.984  12.691  -0.445  0.00  0.00    +0.000 OA
ENDROOT
TORSDOF 0
