REMARK  Name = ../refined-set-2016/3gi4/3gi4_pocket.pdb
REMARK  207 active torsions:
REMARK  status: ('A' for Active; 'I' for Inactive)
REMARK    1  A    between atoms: _1  and  _3
REMARK    2  A    between atoms: _3  and  _4
REMARK    3  A    between atoms: _3  and  _6
REMARK    4  A    between atoms: _6  and  _7
REMARK    5  A    between atoms: _7  and  _8
REMARK    6  A    between atoms: _8  and  _9
REMARK    7  A    between atoms: _18  and  _20
REMARK    8  A    between atoms: _20  and  _21
REMARK    9  A    between atoms: _20  and  _23
REMARK   10  A    between atoms: _23  and  _24
REMARK   11  A    between atoms: _27  and  _29
REMARK   12  A    between atoms: _29  and  _30
REMARK   13  A    between atoms: _29  and  _32
REMARK   14  A    between atoms: _32  and  _33
REMARK   15  A    between atoms: _36  and  _38
REMARK   16  A    between atoms: _38  and  _39
REMARK   17  A    between atoms: _38  and  _41
REMARK   18  A    between atoms: _41  and  _42
REMARK   19  A    between atoms: _45  and  _47
REMARK   20  A    between atoms: _47  and  _48
REMARK   21  A    between atoms: _47  and  _50
REMARK   22  A    between atoms: _50  and  _51
REMARK   23  A    between atoms: _54  and  _56
REMARK   24  A    between atoms: _56  and  _57
REMARK   25  A    between atoms: _59  and  _61
REMARK   26  A    between atoms: _61  and  _62
REMARK   27  A    between atoms: _65  and  _67
REMARK   28  A    between atoms: _67  and  _68
REMARK   29  A    between atoms: _67  and  _70
REMARK   30  A    between atoms: _70  and  _71
REMARK   31  A    between atoms: _74  and  _76
REMARK   32  A    between atoms: _76  and  _77
REMARK   33  A    between atoms: _76  and  _79
REMARK   34  A    between atoms: _79  and  _80
REMARK   35  A    between atoms: _83  and  _85
REMARK   36  A    between atoms: _85  and  _86
REMARK   37  A    between atoms: _85  and  _88
REMARK   38  A    between atoms: _88  and  _89
REMARK   39  A    between atoms: _92  and  _94
REMARK   40  A    between atoms: _94  and  _95
REMARK   41  A    between atoms: _94  and  _97
REMARK   42  A    between atoms: _100  and  _102
REMARK   43  A    between atoms: _102  and  _103
REMARK   44  A    between atoms: _102  and  _105
REMARK   45  A    between atoms: _105  and  _106
REMARK   46  A    between atoms: _109  and  _111
REMARK   47  A    between atoms: _111  and  _112
REMARK   48  A    between atoms: _114  and  _116
REMARK   49  A    between atoms: _116  and  _117
REMARK   50  A    between atoms: _119  and  _121
REMARK   51  A    between atoms: _121  and  _122
REMARK   52  A    between atoms: _121  and  _124
REMARK   53  A    between atoms: _124  and  _125
REMARK   54  A    between atoms: _128  and  _130
REMARK   55  A    between atoms: _130  and  _131
REMARK   56  A    between atoms: _133  and  _135
REMARK   57  A    between atoms: _135  and  _136
REMARK   58  A    between atoms: _138  and  _140
REMARK   59  A    between atoms: _140  and  _141
REMARK   60  A    between atoms: _140  and  _143
REMARK   61  A    between atoms: _143  and  _144
REMARK   62  A    between atoms: _150  and  _152
REMARK   63  A    between atoms: _152  and  _153
REMARK   64  A    between atoms: _152  and  _155
REMARK   65  A    between atoms: _155  and  _156
REMARK   66  A    between atoms: _159  and  _161
REMARK   67  A    between atoms: _161  and  _162
REMARK   68  A    between atoms: _161  and  _164
REMARK   69  A    between atoms: _164  and  _165
REMARK   70  A    between atoms: _169  and  _170
REMARK   71  A    between atoms: _175  and  _177
REMARK   72  A    between atoms: _177  and  _178
REMARK   73  A    between atoms: _177  and  _180
REMARK   74  A    between atoms: _183  and  _185
REMARK   75  A    between atoms: _185  and  _186
REMARK   76  A    between atoms: _185  and  _188
REMARK   77  A    between atoms: _188  and  _189
REMARK   78  A    between atoms: _194  and  _196
REMARK   79  A    between atoms: _196  and  _197
REMARK   80  A    between atoms: _196  and  _199
REMARK   81  A    between atoms: _199  and  _200
REMARK   82  A    between atoms: _203  and  _205
REMARK   83  A    between atoms: _205  and  _206
REMARK   84  A    between atoms: _205  and  _208
REMARK   85  A    between atoms: _208  and  _209
REMARK   86  A    between atoms: _212  and  _214
REMARK   87  A    between atoms: _214  and  _215
REMARK   88  A    between atoms: _217  and  _219
REMARK   89  A    between atoms: _219  and  _220
REMARK   90  A    between atoms: _219  and  _222
REMARK   91  A    between atoms: _222  and  _223
REMARK   92  A    between atoms: _223  and  _224
REMARK   93  A    between atoms: _224  and  _225
REMARK   94  A    between atoms: _234  and  _236
REMARK   95  A    between atoms: _236  and  _237
REMARK   96  A    between atoms: _236  and  _239
REMARK   97  A    between atoms: _239  and  _240
REMARK   98  A    between atoms: _240  and  _241
REMARK   99  A    between atoms: _241  and  _242
REMARK  100  A    between atoms: _251  and  _253
REMARK  101  A    between atoms: _253  and  _254
REMARK  102  A    between atoms: _253  and  _256
REMARK  103  A    between atoms: _256  and  _257
REMARK  104  A    between atoms: _260  and  _262
REMARK  105  A    between atoms: _262  and  _263
REMARK  106  A    between atoms: _262  and  _265
REMARK  107  A    between atoms: _265  and  _266
REMARK  108  A    between atoms: _269  and  _271
REMARK  109  A    between atoms: _271  and  _272
REMARK  110  A    between atoms: _271  and  _274
REMARK  111  A    between atoms: _274  and  _275
REMARK  112  A    between atoms: _278  and  _280
REMARK  113  A    between atoms: _280  and  _281
REMARK  114  A    between atoms: _280  and  _283
REMARK  115  A    between atoms: _283  and  _284
REMARK  116  A    between atoms: _287  and  _289
REMARK  117  A    between atoms: _289  and  _290
REMARK  118  A    between atoms: _292  and  _294
REMARK  119  A    between atoms: _294  and  _295
REMARK  120  A    between atoms: _298  and  _300
REMARK  121  A    between atoms: _300  and  _301
REMARK  122  A    between atoms: _300  and  _303
REMARK  123  A    between atoms: _303  and  _304
REMARK  124  A    between atoms: _307  and  _309
REMARK  125  A    between atoms: _309  and  _310
REMARK  126  A    between atoms: _309  and  _312
REMARK  127  A    between atoms: _312  and  _313
REMARK  128  A    between atoms: _316  and  _318
REMARK  129  A    between atoms: _318  and  _319
REMARK  130  A    between atoms: _318  and  _321
REMARK  131  A    between atoms: _321  and  _322
REMARK  132  A    between atoms: _325  and  _327
REMARK  133  A    between atoms: _327  and  _328
REMARK  134  A    between atoms: _327  and  _330
REMARK  135  A    between atoms: _333  and  _335
REMARK  136  A    between atoms: _335  and  _336
REMARK  137  A    between atoms: _335  and  _338
REMARK  138  A    between atoms: _338  and  _339
REMARK  139  A    between atoms: _339  and  _340
REMARK  140  A    between atoms: _340  and  _341
REMARK  141  A    between atoms: _341  and  _342
REMARK  142  A    between atoms: _346  and  _348
REMARK  143  A    between atoms: _348  and  _349
REMARK  144  A    between atoms: _348  and  _351
REMARK  145  A    between atoms: _351  and  _352
REMARK  146  A    between atoms: _352  and  _353
REMARK  147  A    between atoms: _355  and  _357
REMARK  148  A    between atoms: _357  and  _358
REMARK  149  A    between atoms: _357  and  _360
REMARK  150  A    between atoms: _360  and  _361
REMARK  151  A    between atoms: _364  and  _366
REMARK  152  A    between atoms: _366  and  _367
REMARK  153  A    between atoms: _369  and  _371
REMARK  154  A    between atoms: _371  and  _372
REMARK  155  A    between atoms: _374  and  _376
REMARK  156  A    between atoms: _376  and  _377
REMARK  157  A    between atoms: _376  and  _379
REMARK  158  A    between atoms: _379  and  _380
REMARK  159  A    between atoms: _383  and  _385
REMARK  160  A    between atoms: _385  and  _386
REMARK  161  A    between atoms: _388  and  _390
REMARK  162  A    between atoms: _390  and  _391
REMARK  163  A    between atoms: _393  and  _395
REMARK  164  A    between atoms: _395  and  _396
REMARK  165  A    between atoms: _395  and  _398
REMARK  166  A    between atoms: _398  and  _399
REMARK  167  A    between atoms: _405  and  _407
REMARK  168  A    between atoms: _407  and  _408
REMARK  169  A    between atoms: _407  and  _410
REMARK  170  A    between atoms: _410  and  _411
REMARK  171  A    between atoms: _414  and  _416
REMARK  172  A    between atoms: _416  and  _417
REMARK  173  A    between atoms: _416  and  _419
REMARK  174  A    between atoms: _419  and  _420
REMARK  175  A    between atoms: _424  and  _425
REMARK  176  A    between atoms: _430  and  _432
REMARK  177  A    between atoms: _432  and  _433
REMARK  178  A    between atoms: _432  and  _435
REMARK  179  A    between atoms: _435  and  _436
REMARK  180  A    between atoms: _440  and  _441
REMARK  181  A    between atoms: _446  and  _448
REMARK  182  A    between atoms: _448  and  _449
REMARK  183  A    between atoms: _448  and  _451
REMARK  184  A    between atoms: _454  and  _456
REMARK  185  A    between atoms: _456  and  _457
REMARK  186  A    between atoms: _456  and  _459
REMARK  187  A    between atoms: _459  and  _460
REMARK  188  A    between atoms: _465  and  _467
REMARK  189  A    between atoms: _467  and  _468
REMARK  190  A    between atoms: _467  and  _470
REMARK  191  A    between atoms: _470  and  _471
REMARK  192  A    between atoms: _474  and  _476
REMARK  193  A    between atoms: _476  and  _477
REMARK  194  A    between atoms: _476  and  _479
REMARK  195  A    between atoms: _479  and  _480
REMARK  196  A    between atoms: _483  and  _485
REMARK  197  A    between atoms: _485  and  _486
REMARK  198  A    between atoms: _488  and  _490
REMARK  199  A    between atoms: _490  and  _491
REMARK  200  A    between atoms: _490  and  _493
REMARK  201  A    between atoms: _493  and  _494
REMARK  202  A    between atoms: _494  and  _495
REMARK  203  A    between atoms: _495  and  _496
REMARK  204  A    between atoms: _505  and  _507
REMARK  205  A    between atoms: _507  and  _508
REMARK  206  A    between atoms: _507  and  _510
REMARK  207  A    between atoms: _510  and  _511
REMARK                            x       y       z     vdW  Elec       q    Type
REMARK                         _______ _______ _______ _____ _____    ______ ____
ROOT
ATOM      1  NE  ARG A   1      21.097  37.273  23.998  0.00  0.00    -0.265 N 
ATOM      2  HE  ARG A   1      20.524  37.768  24.711  0.00  0.00    +0.259 HD
ATOM      3  CZ  ARG A   1      20.971  37.673  22.730  0.00  0.00    +0.342 C 
ATOM      4  NH2 ARG A   1      20.152  38.681  22.449  0.00  0.00    -0.292 N 
ATOM      5 HH21 ARG A   1      19.620  39.147  23.212  0.00  0.00    +0.255 HD
ATOM      6 HH22 ARG A   1      20.043  39.004  21.466  0.00  0.00    +0.255 HD
ATOM      7  NH1 ARG A   1      21.634  37.066  21.734  0.00  0.00    -0.292 N 
ATOM      8 HH11 ARG A   1      22.264  36.264  21.941  0.00  0.00    +0.255 HD
ATOM      9 HH12 ARG A   1      21.518  37.397  20.755  0.00  0.00    +0.255 HD
ENDROOT
BRANCH   1  10
ATOM     10  CD  ARG A   1      21.970  36.201  24.472  0.00  0.00    +0.174 C 
BRANCH  10  11
ATOM     11  CG  ARG A   1      21.233  35.120  25.208  0.00  0.00    +0.045 C 
BRANCH  11  12
ATOM     12  CB  ARG A   1      22.204  34.366  26.061  0.00  0.00    +0.029 C 
BRANCH  12  13
ATOM     13  CA  ARG A   1      21.573  33.329  26.981  0.00  0.00    +0.133 C 
BRANCH  13  14
ATOM     14  N   ARG A   1      20.868  33.967  28.091  0.00  0.00    -0.239 NA
ATOM     15  H   ARG A   1      20.818  35.005  28.141  0.00  0.00    +0.142 HD
ENDBRANCH  13  14
BRANCH  13  16
ATOM     16  C   ARG A   1      22.687  32.450  27.528  0.00  0.00    +0.224 C 
ATOM     17  O   ARG A   1      23.437  32.894  28.405  0.00  0.00    -0.287 OA
ENDBRANCH  13  16
ENDBRANCH  12  13
ENDBRANCH  11  12
ENDBRANCH  10  11
ENDBRANCH   1  10
TORSDOF 6
REMARK  Name = ../refined-set-2016/3gi4/3gi4_pocket.pdb
REMARK  207 active torsions:
REMARK  status: ('A' for Active; 'I' for Inactive)
REMARK    1  A    between atoms: _1  and  _3
REMARK    2  A    between atoms: _3  and  _4
REMARK    3  A    between atoms: _3  and  _6
REMARK    4  A    between atoms: _6  and  _7
REMARK    5  A    between atoms: _7  and  _8
REMARK    6  A    between atoms: _8  and  _9
REMARK    7  A    between atoms: _18  and  _20
REMARK    8  A    between atoms: _20  and  _21
REMARK    9  A    between atoms: _20  and  _23
REMARK   10  A    between atoms: _23  and  _24
REMARK   11  A    between atoms: _27  and  _29
REMARK   12  A    between atoms: _29  and  _30
REMARK   13  A    between atoms: _29  and  _32
REMARK   14  A    between atoms: _32  and  _33
REMARK   15  A    between atoms: _36  and  _38
REMARK   16  A    between atoms: _38  and  _39
REMARK   17  A    between atoms: _38  and  _41
REMARK   18  A    between atoms: _41  and  _42
REMARK   19  A    between atoms: _45  and  _47
REMARK   20  A    between atoms: _47  and  _48
REMARK   21  A    between atoms: _47  and  _50
REMARK   22  A    between atoms: _50  and  _51
REMARK   23  A    between atoms: _54  and  _56
REMARK   24  A    between atoms: _56  and  _57
REMARK   25  A    between atoms: _59  and  _61
REMARK   26  A    between atoms: _61  and  _62
REMARK   27  A    between atoms: _65  and  _67
REMARK   28  A    between atoms: _67  and  _68
REMARK   29  A    between atoms: _67  and  _70
REMARK   30  A    between atoms: _70  and  _71
REMARK   31  A    between atoms: _74  and  _76
REMARK   32  A    between atoms: _76  and  _77
REMARK   33  A    between atoms: _76  and  _79
REMARK   34  A    between atoms: _79  and  _80
REMARK   35  A    between atoms: _83  and  _85
REMARK   36  A    between atoms: _85  and  _86
REMARK   37  A    between atoms: _85  and  _88
REMARK   38  A    between atoms: _88  and  _89
REMARK   39  A    between atoms: _92  and  _94
REMARK   40  A    between atoms: _94  and  _95
REMARK   41  A    between atoms: _94  and  _97
REMARK   42  A    between atoms: _100  and  _102
REMARK   43  A    between atoms: _102  and  _103
REMARK   44  A    between atoms: _102  and  _105
REMARK   45  A    between atoms: _105  and  _106
REMARK   46  A    between atoms: _109  and  _111
REMARK   47  A    between atoms: _111  and  _112
REMARK   48  A    between atoms: _114  and  _116
REMARK   49  A    between atoms: _116  and  _117
REMARK   50  A    between atoms: _119  and  _121
REMARK   51  A    between atoms: _121  and  _122
REMARK   52  A    between atoms: _121  and  _124
REMARK   53  A    between atoms: _124  and  _125
REMARK   54  A    between atoms: _128  and  _130
REMARK   55  A    between atoms: _130  and  _131
REMARK   56  A    between atoms: _133  and  _135
REMARK   57  A    between atoms: _135  and  _136
REMARK   58  A    between atoms: _138  and  _140
REMARK   59  A    between atoms: _140  and  _141
REMARK   60  A    between atoms: _140  and  _143
REMARK   61  A    between atoms: _143  and  _144
REMARK   62  A    between atoms: _150  and  _152
REMARK   63  A    between atoms: _152  and  _153
REMARK   64  A    between atoms: _152  and  _155
REMARK   65  A    between atoms: _155  and  _156
REMARK   66  A    between atoms: _159  and  _161
REMARK   67  A    between atoms: _161  and  _162
REMARK   68  A    between atoms: _161  and  _164
REMARK   69  A    between atoms: _164  and  _165
REMARK   70  A    between atoms: _169  and  _170
REMARK   71  A    between atoms: _175  and  _177
REMARK   72  A    between atoms: _177  and  _178
REMARK   73  A    between atoms: _177  and  _180
REMARK   74  A    between atoms: _183  and  _185
REMARK   75  A    between atoms: _185  and  _186
REMARK   76  A    between atoms: _185  and  _188
REMARK   77  A    between atoms: _188  and  _189
REMARK   78  A    between atoms: _194  and  _196
REMARK   79  A    between atoms: _196  and  _197
REMARK   80  A    between atoms: _196  and  _199
REMARK   81  A    between atoms: _199  and  _200
REMARK   82  A    between atoms: _203  and  _205
REMARK   83  A    between atoms: _205  and  _206
REMARK   84  A    between atoms: _205  and  _208
REMARK   85  A    between atoms: _208  and  _209
REMARK   86  A    between atoms: _212  and  _214
REMARK   87  A    between atoms: _214  and  _215
REMARK   88  A    between atoms: _217  and  _219
REMARK   89  A    between atoms: _219  and  _220
REMARK   90  A    between atoms: _219  and  _222
REMARK   91  A    between atoms: _222  and  _223
REMARK   92  A    between atoms: _223  and  _224
REMARK   93  A    between atoms: _224  and  _225
REMARK   94  A    between atoms: _234  and  _236
REMARK   95  A    between atoms: _236  and  _237
REMARK   96  A    between atoms: _236  and  _239
REMARK   97  A    between atoms: _239  and  _240
REMARK   98  A    between atoms: _240  and  _241
REMARK   99  A    between atoms: _241  and  _242
REMARK  100  A    between atoms: _251  and  _253
REMARK  101  A    between atoms: _253  and  _254
REMARK  102  A    between atoms: _253  and  _256
REMARK  103  A    between atoms: _256  and  _257
REMARK  104  A    between atoms: _260  and  _262
REMARK  105  A    between atoms: _262  and  _263
REMARK  106  A    between atoms: _262  and  _265
REMARK  107  A    between atoms: _265  and  _266
REMARK  108  A    between atoms: _269  and  _271
REMARK  109  A    between atoms: _271  and  _272
REMARK  110  A    between atoms: _271  and  _274
REMARK  111  A    between atoms: _274  and  _275
REMARK  112  A    between atoms: _278  and  _280
REMARK  113  A    between atoms: _280  and  _281
REMARK  114  A    between atoms: _280  and  _283
REMARK  115  A    between atoms: _283  and  _284
REMARK  116  A    between atoms: _287  and  _289
REMARK  117  A    between atoms: _289  and  _290
REMARK  118  A    between atoms: _292  and  _294
REMARK  119  A    between atoms: _294  and  _295
REMARK  120  A    between atoms: _298  and  _300
REMARK  121  A    between atoms: _300  and  _301
REMARK  122  A    between atoms: _300  and  _303
REMARK  123  A    between atoms: _303  and  _304
REMARK  124  A    between atoms: _307  and  _309
REMARK  125  A    between atoms: _309  and  _310
REMARK  126  A    between atoms: _309  and  _312
REMARK  127  A    between atoms: _312  and  _313
REMARK  128  A    between atoms: _316  and  _318
REMARK  129  A    between atoms: _318  and  _319
REMARK  130  A    between atoms: _318  and  _321
REMARK  131  A    between atoms: _321  and  _322
REMARK  132  A    between atoms: _325  and  _327
REMARK  133  A    between atoms: _327  and  _328
REMARK  134  A    between atoms: _327  and  _330
REMARK  135  A    between atoms: _333  and  _335
REMARK  136  A    between atoms: _335  and  _336
REMARK  137  A    between atoms: _335  and  _338
REMARK  138  A    between atoms: _338  and  _339
REMARK  139  A    between atoms: _339  and  _340
REMARK  140  A    between atoms: _340  and  _341
REMARK  141  A    between atoms: _341  and  _342
REMARK  142  A    between atoms: _346  and  _348
REMARK  143  A    between atoms: _348  and  _349
REMARK  144  A    between atoms: _348  and  _351
REMARK  145  A    between atoms: _351  and  _352
REMARK  146  A    between atoms: _352  and  _353
REMARK  147  A    between atoms: _355  and  _357
REMARK  148  A    between atoms: _357  and  _358
REMARK  149  A    between atoms: _357  and  _360
REMARK  150  A    between atoms: _360  and  _361
REMARK  151  A    between atoms: _364  and  _366
REMARK  152  A    between atoms: _366  and  _367
REMARK  153  A    between atoms: _369  and  _371
REMARK  154  A    between atoms: _371  and  _372
REMARK  155  A    between atoms: _374  and  _376
REMARK  156  A    between atoms: _376  and  _377
REMARK  157  A    between atoms: _376  and  _379
REMARK  158  A    between atoms: _379  and  _380
REMARK  159  A    between atoms: _383  and  _385
REMARK  160  A    between atoms: _385  and  _386
REMARK  161  A    between atoms: _388  and  _390
REMARK  162  A    between atoms: _390  and  _391
REMARK  163  A    between atoms: _393  and  _395
REMARK  164  A    between atoms: _395  and  _396
REMARK  165  A    between atoms: _395  and  _398
REMARK  166  A    between atoms: _398  and  _399
REMARK  167  A    between atoms: _405  and  _407
REMARK  168  A    between atoms: _407  and  _408
REMARK  169  A    between atoms: _407  and  _410
REMARK  170  A    between atoms: _410  and  _411
REMARK  171  A    between atoms: _414  and  _416
REMARK  172  A    between atoms: _416  and  _417
REMARK  173  A    between atoms: _416  and  _419
REMARK  174  A    between atoms: _419  and  _420
REMARK  175  A    between atoms: _424  and  _425
REMARK  176  A    between atoms: _430  and  _432
REMARK  177  A    between atoms: _432  and  _433
REMARK  178  A    between atoms: _432  and  _435
REMARK  179  A    between atoms: _435  and  _436
REMARK  180  A    between atoms: _440  and  _441
REMARK  181  A    between atoms: _446  and  _448
REMARK  182  A    between atoms: _448  and  _449
REMARK  183  A    between atoms: _448  and  _451
REMARK  184  A    between atoms: _454  and  _456
REMARK  185  A    between atoms: _456  and  _457
REMARK  186  A    between atoms: _456  and  _459
REMARK  187  A    between atoms: _459  and  _460
REMARK  188  A    between atoms: _465  and  _467
REMARK  189  A    between atoms: _467  and  _468
REMARK  190  A    between atoms: _467  and  _470
REMARK  191  A    between atoms: _470  and  _471
REMARK  192  A    between atoms: _474  and  _476
REMARK  193  A    between atoms: _476  and  _477
REMARK  194  A    between atoms: _476  and  _479
REMARK  195  A    between atoms: _479  and  _480
REMARK  196  A    between atoms: _483  and  _485
REMARK  197  A    between atoms: _485  and  _486
REMARK  198  A    between atoms: _488  and  _490
REMARK  199  A    between atoms: _490  and  _491
REMARK  200  A    between atoms: _490  and  _493
REMARK  201  A    between atoms: _493  and  _494
REMARK  202  A    between atoms: _494  and  _495
REMARK  203  A    between atoms: _495  and  _496
REMARK  204  A    between atoms: _505  and  _507
REMARK  205  A    between atoms: _507  and  _508
REMARK  206  A    between atoms: _507  and  _510
REMARK  207  A    between atoms: _510  and  _511
REMARK                            x       y       z     vdW  Elec       q    Type
REMARK                         _______ _______ _______ _____ _____    ______ ____
ROOT
ATOM      1  C   GLY A   5      20.463  25.119  15.688  0.00  0.00    +0.243 C 
ATOM      2  N   ALA A   6      21.764  25.056  15.961  0.00  0.00    -0.297 N 
ATOM      3  H   ALA A   6      22.060  24.878  16.942  0.00  0.00    +0.150 HD
ATOM      4  O   GLY A   5      20.028  25.327  14.553  0.00  0.00    -0.273 OA
ENDROOT
BRANCH   2   5
ATOM      5  CA  ALA A   6      22.792  25.227  14.940  0.00  0.00    +0.149 C 
ATOM      6  CB  ALA A   6      23.805  26.272  15.377  0.00  0.00    +0.031 C 
BRANCH   5   7
ATOM      7  C   ALA A   6      23.478  23.888  14.686  0.00  0.00    +0.241 C 
ATOM      8  O   ALA A   6      24.037  23.299  15.605  0.00  0.00    -0.273 OA
ATOM      9  N   ASP A   7      23.416  23.403  13.445  0.00  0.00    -0.297 N 
ATOM     10  H   ASP A   7      22.848  23.902  12.731  0.00  0.00    +0.150 HD
BRANCH   9  11
ATOM     11  CA  ASP A   7      24.134  22.177  13.067  0.00  0.00    +0.160 C 
BRANCH  11  12
ATOM     12  C   ASP A   7      25.639  22.377  13.263  0.00  0.00    +0.241 C 
ATOM     13  O   ASP A   7      26.346  21.466  13.698  0.00  0.00    -0.273 OA
ATOM     14  N   ASP A   8      26.104  23.573  12.906  0.00  0.00    -0.297 N 
ATOM     15  H   ASP A   8      25.417  24.329  12.708  0.00  0.00    +0.150 HD
BRANCH  14  16
ATOM     16  CA  ASP A   8      27.527  23.881  12.777  0.00  0.00    +0.160 C 
BRANCH  16  17
ATOM     17  C   ASP A   8      27.972  25.029  13.678  0.00  0.00    +0.241 C 
ATOM     18  N   THR A   9      29.218  24.933  14.138  0.00  0.00    -0.295 N 
ATOM     19  H   THR A   9      29.744  24.055  13.951  0.00  0.00    +0.150 HD
ATOM     20  O   ASP A   8      27.221  25.987  13.911  0.00  0.00    -0.273 OA
BRANCH  18  21
ATOM     21  CA  THR A   9      29.887  25.989  14.889  0.00  0.00    +0.176 C 
BRANCH  21  22
ATOM     22  C   THR A   9      30.383  27.070  13.929  0.00  0.00    +0.243 C 
ATOM     23  N   VAL A  10      29.967  28.302  14.189  0.00  0.00    -0.298 N 
ATOM     24  H   VAL A  10      29.387  28.465  15.037  0.00  0.00    +0.150 HD
ATOM     25  O   THR A   9      31.101  26.788  12.968  0.00  0.00    -0.273 OA
BRANCH  23  26
ATOM     26  CA  VAL A  10      30.289  29.434  13.336  0.00  0.00    +0.137 C 
BRANCH  26  27
ATOM     27  CB  VAL A  10      29.067  29.923  12.526  0.00  0.00    +0.026 C 
ATOM     28  CG2 VAL A  10      28.291  28.742  11.935  0.00  0.00    +0.002 C 
ATOM     29  CG1 VAL A  10      29.532  30.864  11.403  0.00  0.00    +0.002 C 
ENDBRANCH  26  27
BRANCH  26  30
ATOM     30  C   VAL A  10      30.789  30.564  14.229  0.00  0.00    +0.227 C 
ATOM     31  O   VAL A  10      30.090  30.989  15.162  0.00  0.00    -0.286 OA
ENDBRANCH  26  30
ENDBRANCH  23  26
ENDBRANCH  21  22
BRANCH  21  32
ATOM     32  CB  THR A   9      31.057  25.406  15.697  0.00  0.00    +0.137 C 
ATOM     33  CG2 THR A   9      31.842  26.503  16.415  0.00  0.00    +0.034 C 
BRANCH  32  34
ATOM     34  OG1 THR A   9      30.542  24.460  16.657  0.00  0.00    -0.382 OA
ATOM     35  HG1 THR A   9      30.070  23.732  16.180  0.00  0.00    +0.210 HD
ENDBRANCH  32  34
ENDBRANCH  21  32
ENDBRANCH  18  21
ENDBRANCH  16  17
BRANCH  16  36
ATOM     36  CB  ASP A   8      27.850  24.280  11.329  0.00  0.00    +0.143 C 
BRANCH  36  37
ATOM     37  CG  ASP A   8      27.460  23.227  10.318  0.00  0.00    +0.367 C 
ATOM     38  OD2 ASP A   8      27.768  22.045  10.546  0.00  0.00    -0.246 OA
ATOM     39  OD1 ASP A   8      26.868  23.589   9.265  0.00  0.00    -0.246 OA
ENDBRANCH  36  37
ENDBRANCH  16  36
ENDBRANCH  14  16
ENDBRANCH  11  12
BRANCH  11  40
ATOM     40  CB  ASP A   7      23.950  21.846  11.580  0.00  0.00    +0.143 C 
BRANCH  40  41
ATOM     41  CG  ASP A   7      22.532  21.458  11.204  0.00  0.00    +0.367 C 
ATOM     42  OD2 ASP A   7      21.666  21.253  12.084  0.00  0.00    -0.246 OA
ATOM     43  OD1 ASP A   7      22.301  21.350   9.980  0.00  0.00    -0.246 OA
ENDBRANCH  40  41
ENDBRANCH  11  40
ENDBRANCH   9  11
ENDBRANCH   5   7
ENDBRANCH   2   5
BRANCH   1  44
ATOM     44  CA  GLY A   5      19.498  24.945  16.862  0.00  0.00    +0.176 C 
BRANCH  44  46
ATOM     45  C   THR A   4      20.591  23.589  18.591  0.00  0.00    +0.243 C 
ATOM     46  N   GLY A   5      20.109  24.760  18.188  0.00  0.00    -0.295 N 
ATOM     47  H   GLY A   5      20.166  25.574  18.832  0.00  0.00    +0.150 HD
ATOM     48  O   THR A   4      20.492  22.563  17.923  0.00  0.00    -0.273 OA
BRANCH  45  49
ATOM     49  CA  THR A   4      21.338  23.564  19.931  0.00  0.00    +0.176 C 
BRANCH  49  51
ATOM     50  C   ASP A   3      22.802  25.484  19.652  0.00  0.00    +0.241 C 
ATOM     51  N   THR A   4      21.827  24.883  20.326  0.00  0.00    -0.295 N 
ATOM     52  H   THR A   4      21.405  25.360  21.148  0.00  0.00    +0.150 HD
ATOM     53  O   ASP A   3      23.270  24.998  18.623  0.00  0.00    -0.273 OA
BRANCH  50  54
ATOM     54  CA  ASP A   3      23.274  26.851  20.198  0.00  0.00    +0.160 C 
BRANCH  54  57
ATOM     55  C   LEU A   2      24.334  27.212  22.372  0.00  0.00    +0.241 C 
ATOM     56  O   LEU A   2      23.316  27.612  22.922  0.00  0.00    -0.273 OA
ATOM     57  N   ASP A   3      24.359  26.704  21.147  0.00  0.00    -0.297 N 
ATOM     58  H   ASP A   3      25.202  26.172  20.852  0.00  0.00    +0.150 HD
BRANCH  55  59
ATOM     59  CA  LEU A   2      25.686  27.280  23.069  0.00  0.00    +0.149 C 
BRANCH  59  61
ATOM     60  C   LEU A   1      26.402  29.436  22.221  0.00  0.00    +0.238 C 
ATOM     61  N   LEU A   2      26.033  28.681  23.252  0.00  0.00    -0.297 N 
ATOM     62  H   LEU A   2      25.992  29.099  24.204  0.00  0.00    +0.150 HD
ATOM     63  O   LEU A   1      26.609  28.979  21.088  0.00  0.00    -0.274 OA
BRANCH  60  64
ATOM     64  CA  LEU A   1      26.565  30.921  22.498  0.00  0.00    +0.145 C 
BRANCH  64  65
ATOM     65  N   LEU A   1      27.897  31.337  22.144  0.00  0.00    -0.238 NA
ATOM     66  H   LEU A   1      28.078  31.601  21.154  0.00  0.00    +0.142 HD
ENDBRANCH  64  65
BRANCH  64  67
ATOM     67  CB  LEU A   1      25.561  31.721  21.665  0.00  0.00    +0.026 C 
BRANCH  67  68
ATOM     68  CG  LEU A   1      24.070  31.527  21.915  0.00  0.00    +0.002 C 
ATOM     69  CD2 LEU A   1      23.658  32.161  23.208  0.00  0.00    +0.000 C 
ATOM     70  CD1 LEU A   1      23.276  32.111  20.733  0.00  0.00    +0.000 C 
ENDBRANCH  67  68
ENDBRANCH  64  67
ENDBRANCH  60  64
ENDBRANCH  59  61
BRANCH  59  71
ATOM     71  CB  LEU A   2      25.657  26.535  24.400  0.00  0.00    +0.029 C 
BRANCH  71  72
ATOM     72  CG  LEU A   2      26.943  26.609  25.220  0.00  0.00    +0.002 C 
ATOM     73  CD2 LEU A   2      26.710  25.888  26.565  0.00  0.00    +0.000 C 
ATOM     74  CD1 LEU A   2      28.117  26.008  24.470  0.00  0.00    +0.000 C 
ENDBRANCH  71  72
ENDBRANCH  59  71
ENDBRANCH  55  59
ENDBRANCH  54  57
BRANCH  54  75
ATOM     75  CB  ASP A   3      23.761  27.772  19.075  0.00  0.00    +0.143 C 
BRANCH  75  76
ATOM     76  CG  ASP A   3      22.642  28.226  18.163  0.00  0.00    +0.367 C 
ATOM     77  OD2 ASP A   3      21.523  27.662  18.257  0.00  0.00    -0.246 OA
ATOM     78  OD1 ASP A   3      22.896  29.146  17.359  0.00  0.00    -0.246 OA
ENDBRANCH  75  76
ENDBRANCH  54  75
ENDBRANCH  50  54
ENDBRANCH  49  51
BRANCH  49  79
ATOM     79  CB  THR A   4      20.454  22.931  21.017  0.00  0.00    +0.137 C 
ATOM     80  CG2 THR A   4      21.285  22.668  22.276  0.00  0.00    +0.034 C 
BRANCH  79  81
ATOM     81  OG1 THR A   4      19.352  23.793  21.330  0.00  0.00    -0.382 OA
ATOM     82  HG1 THR A   4      18.808  23.940  20.516  0.00  0.00    +0.210 HD
ENDBRANCH  79  81
ENDBRANCH  49  79
ENDBRANCH  45  49
ENDBRANCH  44  46
ENDBRANCH   1  44
TORSDOF 35
REMARK  Name = ../refined-set-2016/3gi4/3gi4_pocket.pdb
REMARK  207 active torsions:
REMARK  status: ('A' for Active; 'I' for Inactive)
REMARK    1  A    between atoms: _1  and  _3
REMARK    2  A    between atoms: _3  and  _4
REMARK    3  A    between atoms: _3  and  _6
REMARK    4  A    between atoms: _6  and  _7
REMARK    5  A    between atoms: _7  and  _8
REMARK    6  A    between atoms: _8  and  _9
REMARK    7  A    between atoms: _18  and  _20
REMARK    8  A    between atoms: _20  and  _21
REMARK    9  A    between atoms: _20  and  _23
REMARK   10  A    between atoms: _23  and  _24
REMARK   11  A    between atoms: _27  and  _29
REMARK   12  A    between atoms: _29  and  _30
REMARK   13  A    between atoms: _29  and  _32
REMARK   14  A    between atoms: _32  and  _33
REMARK   15  A    between atoms: _36  and  _38
REMARK   16  A    between atoms: _38  and  _39
REMARK   17  A    between atoms: _38  and  _41
REMARK   18  A    between atoms: _41  and  _42
REMARK   19  A    between atoms: _45  and  _47
REMARK   20  A    between atoms: _47  and  _48
REMARK   21  A    between atoms: _47  and  _50
REMARK   22  A    between atoms: _50  and  _51
REMARK   23  A    between atoms: _54  and  _56
REMARK   24  A    between atoms: _56  and  _57
REMARK   25  A    between atoms: _59  and  _61
REMARK   26  A    between atoms: _61  and  _62
REMARK   27  A    between atoms: _65  and  _67
REMARK   28  A    between atoms: _67  and  _68
REMARK   29  A    between atoms: _67  and  _70
REMARK   30  A    between atoms: _70  and  _71
REMARK   31  A    between atoms: _74  and  _76
REMARK   32  A    between atoms: _76  and  _77
REMARK   33  A    between atoms: _76  and  _79
REMARK   34  A    between atoms: _79  and  _80
REMARK   35  A    between atoms: _83  and  _85
REMARK   36  A    between atoms: _85  and  _86
REMARK   37  A    between atoms: _85  and  _88
REMARK   38  A    between atoms: _88  and  _89
REMARK   39  A    between atoms: _92  and  _94
REMARK   40  A    between atoms: _94  and  _95
REMARK   41  A    between atoms: _94  and  _97
REMARK   42  A    between atoms: _100  and  _102
REMARK   43  A    between atoms: _102  and  _103
REMARK   44  A    between atoms: _102  and  _105
REMARK   45  A    between atoms: _105  and  _106
REMARK   46  A    between atoms: _109  and  _111
REMARK   47  A    between atoms: _111  and  _112
REMARK   48  A    between atoms: _114  and  _116
REMARK   49  A    between atoms: _116  and  _117
REMARK   50  A    between atoms: _119  and  _121
REMARK   51  A    between atoms: _121  and  _122
REMARK   52  A    between atoms: _121  and  _124
REMARK   53  A    between atoms: _124  and  _125
REMARK   54  A    between atoms: _128  and  _130
REMARK   55  A    between atoms: _130  and  _131
REMARK   56  A    between atoms: _133  and  _135
REMARK   57  A    between atoms: _135  and  _136
REMARK   58  A    between atoms: _138  and  _140
REMARK   59  A    between atoms: _140  and  _141
REMARK   60  A    between atoms: _140  and  _143
REMARK   61  A    between atoms: _143  and  _144
REMARK   62  A    between atoms: _150  and  _152
REMARK   63  A    between atoms: _152  and  _153
REMARK   64  A    between atoms: _152  and  _155
REMARK   65  A    between atoms: _155  and  _156
REMARK   66  A    between atoms: _159  and  _161
REMARK   67  A    between atoms: _161  and  _162
REMARK   68  A    between atoms: _161  and  _164
REMARK   69  A    between atoms: _164  and  _165
REMARK   70  A    between atoms: _169  and  _170
REMARK   71  A    between atoms: _175  and  _177
REMARK   72  A    between atoms: _177  and  _178
REMARK   73  A    between atoms: _177  and  _180
REMARK   74  A    between atoms: _183  and  _185
REMARK   75  A    between atoms: _185  and  _186
REMARK   76  A    between atoms: _185  and  _188
REMARK   77  A    between atoms: _188  and  _189
REMARK   78  A    between atoms: _194  and  _196
REMARK   79  A    between atoms: _196  and  _197
REMARK   80  A    between atoms: _196  and  _199
REMARK   81  A    between atoms: _199  and  _200
REMARK   82  A    between atoms: _203  and  _205
REMARK   83  A    between atoms: _205  and  _206
REMARK   84  A    between atoms: _205  and  _208
REMARK   85  A    between atoms: _208  and  _209
REMARK   86  A    between atoms: _212  and  _214
REMARK   87  A    between atoms: _214  and  _215
REMARK   88  A    between atoms: _217  and  _219
REMARK   89  A    between atoms: _219  and  _220
REMARK   90  A    between atoms: _219  and  _222
REMARK   91  A    between atoms: _222  and  _223
REMARK   92  A    between atoms: _223  and  _224
REMARK   93  A    between atoms: _224  and  _225
REMARK   94  A    between atoms: _234  and  _236
REMARK   95  A    between atoms: _236  and  _237
REMARK   96  A    between atoms: _236  and  _239
REMARK   97  A    between atoms: _239  and  _240
REMARK   98  A    between atoms: _240  and  _241
REMARK   99  A    between atoms: _241  and  _242
REMARK  100  A    between atoms: _251  and  _253
REMARK  101  A    between atoms: _253  and  _254
REMARK  102  A    between atoms: _253  and  _256
REMARK  103  A    between atoms: _256  and  _257
REMARK  104  A    between atoms: _260  and  _262
REMARK  105  A    between atoms: _262  and  _263
REMARK  106  A    between atoms: _262  and  _265
REMARK  107  A    between atoms: _265  and  _266
REMARK  108  A    between atoms: _269  and  _271
REMARK  109  A    between atoms: _271  and  _272
REMARK  110  A    between atoms: _271  and  _274
REMARK  111  A    between atoms: _274  and  _275
REMARK  112  A    between atoms: _278  and  _280
REMARK  113  A    between atoms: _280  and  _281
REMARK  114  A    between atoms: _280  and  _283
REMARK  115  A    between atoms: _283  and  _284
REMARK  116  A    between atoms: _287  and  _289
REMARK  117  A    between atoms: _289  and  _290
REMARK  118  A    between atoms: _292  and  _294
REMARK  119  A    between atoms: _294  and  _295
REMARK  120  A    between atoms: _298  and  _300
REMARK  121  A    between atoms: _300  and  _301
REMARK  122  A    between atoms: _300  and  _303
REMARK  123  A    between atoms: _303  and  _304
REMARK  124  A    between atoms: _307  and  _309
REMARK  125  A    between atoms: _309  and  _310
REMARK  126  A    between atoms: _309  and  _312
REMARK  127  A    between atoms: _312  and  _313
REMARK  128  A    between atoms: _316  and  _318
REMARK  129  A    between atoms: _318  and  _319
REMARK  130  A    between atoms: _318  and  _321
REMARK  131  A    between atoms: _321  and  _322
REMARK  132  A    between atoms: _325  and  _327
REMARK  133  A    between atoms: _327  and  _328
REMARK  134  A    between atoms: _327  and  _330
REMARK  135  A    between atoms: _333  and  _335
REMARK  136  A    between atoms: _335  and  _336
REMARK  137  A    between atoms: _335  and  _338
REMARK  138  A    between atoms: _338  and  _339
REMARK  139  A    between atoms: _339  and  _340
REMARK  140  A    between atoms: _340  and  _341
REMARK  141  A    between atoms: _341  and  _342
REMARK  142  A    between atoms: _346  and  _348
REMARK  143  A    between atoms: _348  and  _349
REMARK  144  A    between atoms: _348  and  _351
REMARK  145  A    between atoms: _351  and  _352
REMARK  146  A    between atoms: _352  and  _353
REMARK  147  A    between atoms: _355  and  _357
REMARK  148  A    between atoms: _357  and  _358
REMARK  149  A    between atoms: _357  and  _360
REMARK  150  A    between atoms: _360  and  _361
REMARK  151  A    between atoms: _364  and  _366
REMARK  152  A    between atoms: _366  and  _367
REMARK  153  A    between atoms: _369  and  _371
REMARK  154  A    between atoms: _371  and  _372
REMARK  155  A    between atoms: _374  and  _376
REMARK  156  A    between atoms: _376  and  _377
REMARK  157  A    between atoms: _376  and  _379
REMARK  158  A    between atoms: _379  and  _380
REMARK  159  A    between atoms: _383  and  _385
REMARK  160  A    between atoms: _385  and  _386
REMARK  161  A    between atoms: _388  and  _390
REMARK  162  A    between atoms: _390  and  _391
REMARK  163  A    between atoms: _393  and  _395
REMARK  164  A    between atoms: _395  and  _396
REMARK  165  A    between atoms: _395  and  _398
REMARK  166  A    between atoms: _398  and  _399
REMARK  167  A    between atoms: _405  and  _407
REMARK  168  A    between atoms: _407  and  _408
REMARK  169  A    between atoms: _407  and  _410
REMARK  170  A    between atoms: _410  and  _411
REMARK  171  A    between atoms: _414  and  _416
REMARK  172  A    between atoms: _416  and  _417
REMARK  173  A    between atoms: _416  and  _419
REMARK  174  A    between atoms: _419  and  _420
REMARK  175  A    between atoms: _424  and  _425
REMARK  176  A    between atoms: _430  and  _432
REMARK  177  A    between atoms: _432  and  _433
REMARK  178  A    between atoms: _432  and  _435
REMARK  179  A    between atoms: _435  and  _436
REMARK  180  A    between atoms: _440  and  _441
REMARK  181  A    between atoms: _446  and  _448
REMARK  182  A    between atoms: _448  and  _449
REMARK  183  A    between atoms: _448  and  _451
REMARK  184  A    between atoms: _454  and  _456
REMARK  185  A    between atoms: _456  and  _457
REMARK  186  A    between atoms: _456  and  _459
REMARK  187  A    between atoms: _459  and  _460
REMARK  188  A    between atoms: _465  and  _467
REMARK  189  A    between atoms: _467  and  _468
REMARK  190  A    between atoms: _467  and  _470
REMARK  191  A    between atoms: _470  and  _471
REMARK  192  A    between atoms: _474  and  _476
REMARK  193  A    between atoms: _476  and  _477
REMARK  194  A    between atoms: _476  and  _479
REMARK  195  A    between atoms: _479  and  _480
REMARK  196  A    between atoms: _483  and  _485
REMARK  197  A    between atoms: _485  and  _486
REMARK  198  A    between atoms: _488  and  _490
REMARK  199  A    between atoms: _490  and  _491
REMARK  200  A    between atoms: _490  and  _493
REMARK  201  A    between atoms: _493  and  _494
REMARK  202  A    between atoms: _494  and  _495
REMARK  203  A    between atoms: _495  and  _496
REMARK  204  A    between atoms: _505  and  _507
REMARK  205  A    between atoms: _507  and  _508
REMARK  206  A    between atoms: _507  and  _510
REMARK  207  A    between atoms: _510  and  _511
REMARK                            x       y       z     vdW  Elec       q    Type
REMARK                         _______ _______ _______ _____ _____    ______ ____
ROOT
ATOM      1  C   ILE A   4      16.989  33.726   8.116  0.00  0.00    +0.241 C 
ATOM      2  N   GLY A   5      18.082  34.435   7.852  0.00  0.00    -0.295 N 
ATOM      3  H   GLY A   5      18.985  34.134   8.271  0.00  0.00    +0.150 HD
ATOM      4  O   ILE A   4      15.894  33.949   7.583  0.00  0.00    -0.273 OA
ENDROOT
BRANCH   2   5
ATOM      5  CA  GLY A   5      18.066  35.618   6.999  0.00  0.00    +0.176 C 
BRANCH   5   6
ATOM      6  C   GLY A   5      18.561  35.449   5.585  0.00  0.00    +0.243 C 
ATOM      7  N   GLY A   6      19.016  34.249   5.241  0.00  0.00    -0.295 N 
ATOM      8  H   GLY A   6      18.945  33.466   5.922  0.00  0.00    +0.150 HD
ATOM      9  O   GLY A   5      18.505  36.397   4.798  0.00  0.00    -0.273 OA
BRANCH   7  10
ATOM     10  CA  GLY A   6      19.607  34.002   3.946  0.00  0.00    +0.176 C 
BRANCH  10  11
ATOM     11  C   GLY A   6      20.902  33.243   4.089  0.00  0.00    +0.243 C 
ATOM     12  O   GLY A   6      21.164  32.623   5.134  0.00  0.00    -0.273 OA
ATOM     13  N   PHE A   7      21.713  33.300   3.042  0.00  0.00    -0.297 N 
ATOM     14  H   PHE A   7      21.459  33.916   2.243  0.00  0.00    +0.150 HD
BRANCH  13  15
ATOM     15  CA  PHE A   7      22.943  32.532   2.972  0.00  0.00    +0.153 C 
BRANCH  15  16
ATOM     16  C   PHE A   7      24.160  33.439   3.041  0.00  0.00    +0.241 C 
ATOM     17  N   ILE A   8      25.232  32.922   3.629  0.00  0.00    -0.298 N 
ATOM     18  H   ILE A   8      25.178  31.955   4.009  0.00  0.00    +0.150 HD
ATOM     19  O   PHE A   7      24.127  34.569   2.564  0.00  0.00    -0.273 OA
BRANCH  17  20
ATOM     20  CA  ILE A   8      26.483  33.660   3.762  0.00  0.00    +0.137 C 
BRANCH  20  21
ATOM     21  C   ILE A   8      27.661  32.811   3.315  0.00  0.00    +0.227 C 
ATOM     22  O   ILE A   8      27.570  31.585   3.232  0.00  0.00    -0.286 OA
ENDBRANCH  20  21
BRANCH  20  23
ATOM     23  CB  ILE A   8      26.754  34.135   5.216  0.00  0.00    +0.026 C 
ATOM     24  CG2 ILE A   8      25.689  35.128   5.661  0.00  0.00    +0.002 C 
BRANCH  23  25
ATOM     25  CG1 ILE A   8      26.896  32.949   6.192  0.00  0.00    +0.002 C 
ATOM     26  CD1 ILE A   8      27.481  33.352   7.529  0.00  0.00    +0.000 C 
ENDBRANCH  23  25
ENDBRANCH  20  23
ENDBRANCH  17  20
ENDBRANCH  15  16
BRANCH  15  27
ATOM     27  CB  PHE A   7      22.963  31.692   1.694  0.00  0.00    +0.055 C 
BRANCH  27  28
ATOM     28  CG  PHE A   7      22.187  30.410   1.820  0.00  0.00    -0.020 A 
ATOM     29  CD2 PHE A   7      20.810  30.436   1.994  0.00  0.00    -0.004 A 
ATOM     30  CE2 PHE A   7      20.101  29.257   2.135  0.00  0.00    -0.000 A 
ATOM     31  CZ  PHE A   7      20.769  28.045   2.115  0.00  0.00    -0.000 A 
ATOM     32  CE1 PHE A   7      22.129  28.008   1.954  0.00  0.00    -0.000 A 
ATOM     33  CD1 PHE A   7      22.840  29.185   1.822  0.00  0.00    -0.004 A 
ENDBRANCH  27  28
ENDBRANCH  15  27
ENDBRANCH  13  15
ENDBRANCH  10  11
ENDBRANCH   7  10
ENDBRANCH   5   6
ENDBRANCH   2   5
BRANCH   1  34
ATOM     34  CA  ILE A   4      17.152  32.587   9.127  0.00  0.00    +0.149 C 
BRANCH  34  36
ATOM     35  C   GLY A   3      19.042  31.477   8.089  0.00  0.00    +0.243 C 
ATOM     36  N   ILE A   4      18.515  32.076   9.151  0.00  0.00    -0.297 N 
ATOM     37  H   ILE A   4      19.086  32.182  10.014  0.00  0.00    +0.150 HD
ATOM     38  O   GLY A   3      18.471  31.419   6.989  0.00  0.00    -0.273 OA
BRANCH  35  39
ATOM     39  CA  GLY A   3      20.423  30.874   8.269  0.00  0.00    +0.176 C 
BRANCH  39  42
ATOM     40  C   GLY A   2      21.816  29.522   6.778  0.00  0.00    +0.243 C 
ATOM     41  O   GLY A   2      22.361  28.916   7.694  0.00  0.00    -0.273 OA
ATOM     42  N   GLY A   3      20.904  30.461   6.961  0.00  0.00    -0.295 N 
ATOM     43  H   GLY A   3      20.508  30.931   6.122  0.00  0.00    +0.150 HD
BRANCH  40  44
ATOM     44  CA  GLY A   2      22.169  29.229   5.333  0.00  0.00    +0.176 C 
BRANCH  44  46
ATOM     45  C   ILE A   1      24.567  29.117   4.848  0.00  0.00    +0.238 C 
ATOM     46  N   GLY A   2      23.439  28.517   5.232  0.00  0.00    -0.296 N 
ATOM     47  H   GLY A   2      23.466  27.505   5.468  0.00  0.00    +0.150 HD
ATOM     48  O   ILE A   1      24.652  30.317   4.586  0.00  0.00    -0.274 OA
BRANCH  45  49
ATOM     49  CA  ILE A   1      25.793  28.217   4.751  0.00  0.00    +0.145 C 
BRANCH  49  50
ATOM     50  N   ILE A   1      26.780  28.766   3.820  0.00  0.00    -0.238 NA
ATOM     51  H   ILE A   1      27.036  29.772   3.886  0.00  0.00    +0.142 HD
ENDBRANCH  49  50
BRANCH  49  52
ATOM     52  CB  ILE A   1      26.385  27.949   6.153  0.00  0.00    +0.025 C 
ATOM     53  CG2 ILE A   1      27.548  26.966   6.051  0.00  0.00    +0.002 C 
BRANCH  52  54
ATOM     54  CG1 ILE A   1      26.846  29.236   6.856  0.00  0.00    +0.002 C 
ATOM     55  CD1 ILE A   1      27.208  29.028   8.311  0.00  0.00    +0.000 C 
ENDBRANCH  52  54
ENDBRANCH  49  52
ENDBRANCH  45  49
ENDBRANCH  44  46
ENDBRANCH  40  44
ENDBRANCH  39  42
ENDBRANCH  35  39
ENDBRANCH  34  36
BRANCH  34  56
ATOM     56  CB  ILE A   4      16.684  33.027  10.539  0.00  0.00    +0.027 C 
ATOM     57  CG2 ILE A   4      17.188  34.419  10.884  0.00  0.00    +0.002 C 
BRANCH  56  58
ATOM     58  CG1 ILE A   4      15.162  32.910  10.637  0.00  0.00    +0.002 C 
ATOM     59  CD1 ILE A   4      14.629  33.118  12.039  0.00  0.00    +0.000 C 
ENDBRANCH  56  58
ENDBRANCH  34  56
ENDBRANCH   1  34
TORSDOF 24
REMARK  Name = ../refined-set-2016/3gi4/3gi4_pocket.pdb
REMARK  207 active torsions:
REMARK  status: ('A' for Active; 'I' for Inactive)
REMARK    1  A    between atoms: _1  and  _3
REMARK    2  A    between atoms: _3  and  _4
REMARK    3  A    between atoms: _3  and  _6
REMARK    4  A    between atoms: _6  and  _7
REMARK    5  A    between atoms: _7  and  _8
REMARK    6  A    between atoms: _8  and  _9
REMARK    7  A    between atoms: _18  and  _20
REMARK    8  A    between atoms: _20  and  _21
REMARK    9  A    between atoms: _20  and  _23
REMARK   10  A    between atoms: _23  and  _24
REMARK   11  A    between atoms: _27  and  _29
REMARK   12  A    between atoms: _29  and  _30
REMARK   13  A    between atoms: _29  and  _32
REMARK   14  A    between atoms: _32  and  _33
REMARK   15  A    between atoms: _36  and  _38
REMARK   16  A    between atoms: _38  and  _39
REMARK   17  A    between atoms: _38  and  _41
REMARK   18  A    between atoms: _41  and  _42
REMARK   19  A    between atoms: _45  and  _47
REMARK   20  A    between atoms: _47  and  _48
REMARK   21  A    between atoms: _47  and  _50
REMARK   22  A    between atoms: _50  and  _51
REMARK   23  A    between atoms: _54  and  _56
REMARK   24  A    between atoms: _56  and  _57
REMARK   25  A    between atoms: _59  and  _61
REMARK   26  A    between atoms: _61  and  _62
REMARK   27  A    between atoms: _65  and  _67
REMARK   28  A    between atoms: _67  and  _68
REMARK   29  A    between atoms: _67  and  _70
REMARK   30  A    between atoms: _70  and  _71
REMARK   31  A    between atoms: _74  and  _76
REMARK   32  A    between atoms: _76  and  _77
REMARK   33  A    between atoms: _76  and  _79
REMARK   34  A    between atoms: _79  and  _80
REMARK   35  A    between atoms: _83  and  _85
REMARK   36  A    between atoms: _85  and  _86
REMARK   37  A    between atoms: _85  and  _88
REMARK   38  A    between atoms: _88  and  _89
REMARK   39  A    between atoms: _92  and  _94
REMARK   40  A    between atoms: _94  and  _95
REMARK   41  A    between atoms: _94  and  _97
REMARK   42  A    between atoms: _100  and  _102
REMARK   43  A    between atoms: _102  and  _103
REMARK   44  A    between atoms: _102  and  _105
REMARK   45  A    between atoms: _105  and  _106
REMARK   46  A    between atoms: _109  and  _111
REMARK   47  A    between atoms: _111  and  _112
REMARK   48  A    between atoms: _114  and  _116
REMARK   49  A    between atoms: _116  and  _117
REMARK   50  A    between atoms: _119  and  _121
REMARK   51  A    between atoms: _121  and  _122
REMARK   52  A    between atoms: _121  and  _124
REMARK   53  A    between atoms: _124  and  _125
REMARK   54  A    between atoms: _128  and  _130
REMARK   55  A    between atoms: _130  and  _131
REMARK   56  A    between atoms: _133  and  _135
REMARK   57  A    between atoms: _135  and  _136
REMARK   58  A    between atoms: _138  and  _140
REMARK   59  A    between atoms: _140  and  _141
REMARK   60  A    between atoms: _140  and  _143
REMARK   61  A    between atoms: _143  and  _144
REMARK   62  A    between atoms: _150  and  _152
REMARK   63  A    between atoms: _152  and  _153
REMARK   64  A    between atoms: _152  and  _155
REMARK   65  A    between atoms: _155  and  _156
REMARK   66  A    between atoms: _159  and  _161
REMARK   67  A    between atoms: _161  and  _162
REMARK   68  A    between atoms: _161  and  _164
REMARK   69  A    between atoms: _164  and  _165
REMARK   70  A    between atoms: _169  and  _170
REMARK   71  A    between atoms: _175  and  _177
REMARK   72  A    between atoms: _177  and  _178
REMARK   73  A    between atoms: _177  and  _180
REMARK   74  A    between atoms: _183  and  _185
REMARK   75  A    between atoms: _185  and  _186
REMARK   76  A    between atoms: _185  and  _188
REMARK   77  A    between atoms: _188  and  _189
REMARK   78  A    between atoms: _194  and  _196
REMARK   79  A    between atoms: _196  and  _197
REMARK   80  A    between atoms: _196  and  _199
REMARK   81  A    between atoms: _199  and  _200
REMARK   82  A    between atoms: _203  and  _205
REMARK   83  A    between atoms: _205  and  _206
REMARK   84  A    between atoms: _205  and  _208
REMARK   85  A    between atoms: _208  and  _209
REMARK   86  A    between atoms: _212  and  _214
REMARK   87  A    between atoms: _214  and  _215
REMARK   88  A    between atoms: _217  and  _219
REMARK   89  A    between atoms: _219  and  _220
REMARK   90  A    between atoms: _219  and  _222
REMARK   91  A    between atoms: _222  and  _223
REMARK   92  A    between atoms: _223  and  _224
REMARK   93  A    between atoms: _224  and  _225
REMARK   94  A    between atoms: _234  and  _236
REMARK   95  A    between atoms: _236  and  _237
REMARK   96  A    between atoms: _236  and  _239
REMARK   97  A    between atoms: _239  and  _240
REMARK   98  A    between atoms: _240  and  _241
REMARK   99  A    between atoms: _241  and  _242
REMARK  100  A    between atoms: _251  and  _253
REMARK  101  A    between atoms: _253  and  _254
REMARK  102  A    between atoms: _253  and  _256
REMARK  103  A    between atoms: _256  and  _257
REMARK  104  A    between atoms: _260  and  _262
REMARK  105  A    between atoms: _262  and  _263
REMARK  106  A    between atoms: _262  and  _265
REMARK  107  A    between atoms: _265  and  _266
REMARK  108  A    between atoms: _269  and  _271
REMARK  109  A    between atoms: _271  and  _272
REMARK  110  A    between atoms: _271  and  _274
REMARK  111  A    between atoms: _274  and  _275
REMARK  112  A    between atoms: _278  and  _280
REMARK  113  A    between atoms: _280  and  _281
REMARK  114  A    between atoms: _280  and  _283
REMARK  115  A    between atoms: _283  and  _284
REMARK  116  A    between atoms: _287  and  _289
REMARK  117  A    between atoms: _289  and  _290
REMARK  118  A    between atoms: _292  and  _294
REMARK  119  A    between atoms: _294  and  _295
REMARK  120  A    between atoms: _298  and  _300
REMARK  121  A    between atoms: _300  and  _301
REMARK  122  A    between atoms: _300  and  _303
REMARK  123  A    between atoms: _303  and  _304
REMARK  124  A    between atoms: _307  and  _309
REMARK  125  A    between atoms: _309  and  _310
REMARK  126  A    between atoms: _309  and  _312
REMARK  127  A    between atoms: _312  and  _313
REMARK  128  A    between atoms: _316  and  _318
REMARK  129  A    between atoms: _318  and  _319
REMARK  130  A    between atoms: _318  and  _321
REMARK  131  A    between atoms: _321  and  _322
REMARK  132  A    between atoms: _325  and  _327
REMARK  133  A    between atoms: _327  and  _328
REMARK  134  A    between atoms: _327  and  _330
REMARK  135  A    between atoms: _333  and  _335
REMARK  136  A    between atoms: _335  and  _336
REMARK  137  A    between atoms: _335  and  _338
REMARK  138  A    between atoms: _338  and  _339
REMARK  139  A    between atoms: _339  and  _340
REMARK  140  A    between atoms: _340  and  _341
REMARK  141  A    between atoms: _341  and  _342
REMARK  142  A    between atoms: _346  and  _348
REMARK  143  A    between atoms: _348  and  _349
REMARK  144  A    between atoms: _348  and  _351
REMARK  145  A    between atoms: _351  and  _352
REMARK  146  A    between atoms: _352  and  _353
REMARK  147  A    between atoms: _355  and  _357
REMARK  148  A    between atoms: _357  and  _358
REMARK  149  A    between atoms: _357  and  _360
REMARK  150  A    between atoms: _360  and  _361
REMARK  151  A    between atoms: _364  and  _366
REMARK  152  A    between atoms: _366  and  _367
REMARK  153  A    between atoms: _369  and  _371
REMARK  154  A    between atoms: _371  and  _372
REMARK  155  A    between atoms: _374  and  _376
REMARK  156  A    between atoms: _376  and  _377
REMARK  157  A    between atoms: _376  and  _379
REMARK  158  A    between atoms: _379  and  _380
REMARK  159  A    between atoms: _383  and  _385
REMARK  160  A    between atoms: _385  and  _386
REMARK  161  A    between atoms: _388  and  _390
REMARK  162  A    between atoms: _390  and  _391
REMARK  163  A    between atoms: _393  and  _395
REMARK  164  A    between atoms: _395  and  _396
REMARK  165  A    between atoms: _395  and  _398
REMARK  166  A    between atoms: _398  and  _399
REMARK  167  A    between atoms: _405  and  _407
REMARK  168  A    between atoms: _407  and  _408
REMARK  169  A    between atoms: _407  and  _410
REMARK  170  A    between atoms: _410  and  _411
REMARK  171  A    between atoms: _414  and  _416
REMARK  172  A    between atoms: _416  and  _417
REMARK  173  A    between atoms: _416  and  _419
REMARK  174  A    between atoms: _419  and  _420
REMARK  175  A    between atoms: _424  and  _425
REMARK  176  A    between atoms: _430  and  _432
REMARK  177  A    between atoms: _432  and  _433
REMARK  178  A    between atoms: _432  and  _435
REMARK  179  A    between atoms: _435  and  _436
REMARK  180  A    between atoms: _440  and  _441
REMARK  181  A    between atoms: _446  and  _448
REMARK  182  A    between atoms: _448  and  _449
REMARK  183  A    between atoms: _448  and  _451
REMARK  184  A    between atoms: _454  and  _456
REMARK  185  A    between atoms: _456  and  _457
REMARK  186  A    between atoms: _456  and  _459
REMARK  187  A    between atoms: _459  and  _460
REMARK  188  A    between atoms: _465  and  _467
REMARK  189  A    between atoms: _467  and  _468
REMARK  190  A    between atoms: _467  and  _470
REMARK  191  A    between atoms: _470  and  _471
REMARK  192  A    between atoms: _474  and  _476
REMARK  193  A    between atoms: _476  and  _477
REMARK  194  A    between atoms: _476  and  _479
REMARK  195  A    between atoms: _479  and  _480
REMARK  196  A    between atoms: _483  and  _485
REMARK  197  A    between atoms: _485  and  _486
REMARK  198  A    between atoms: _488  and  _490
REMARK  199  A    between atoms: _490  and  _491
REMARK  200  A    between atoms: _490  and  _493
REMARK  201  A    between atoms: _493  and  _494
REMARK  202  A    between atoms: _494  and  _495
REMARK  203  A    between atoms: _495  and  _496
REMARK  204  A    between atoms: _505  and  _507
REMARK  205  A    between atoms: _507  and  _508
REMARK  206  A    between atoms: _507  and  _510
REMARK  207  A    between atoms: _510  and  _511
REMARK                            x       y       z     vdW  Elec       q    Type
REMARK                         _______ _______ _______ _____ _____    ______ ____
ROOT
ATOM      1  CA  ILE A   5      27.871  30.072  18.073  0.00  0.00    +0.149 C 
ENDROOT
BRANCH   1   4
ATOM      2  C   ASN A   4      28.911  32.229  18.447  0.00  0.00    +0.241 C 
ATOM      3  O   ASN A   4      28.301  32.391  19.518  0.00  0.00    -0.273 OA
ATOM      4  N   ILE A   5      28.766  31.145  17.690  0.00  0.00    -0.297 N 
ATOM      5  H   ILE A   5      29.306  31.066  16.805  0.00  0.00    +0.150 HD
BRANCH   2   6
ATOM      6  CA  ASN A   4      29.893  33.286  17.951  0.00  0.00    +0.158 C 
BRANCH   6   8
ATOM      7  C   VAL A   3      28.162  34.776  17.130  0.00  0.00    +0.241 C 
ATOM      8  N   ASN A   4      29.219  34.590  17.915  0.00  0.00    -0.297 N 
ATOM      9  H   ASN A   4      29.570  35.371  18.506  0.00  0.00    +0.150 HD
ATOM     10  O   VAL A   3      27.770  33.926  16.318  0.00  0.00    -0.273 OA
BRANCH   7  11
ATOM     11  CA  VAL A   3      27.446  36.109  17.255  0.00  0.00    +0.149 C 
BRANCH  11  14
ATOM     12  C   PRO A   2      26.477  37.623  15.601  0.00  0.00    +0.241 C 
ATOM     13  O   PRO A   2      26.751  38.617  16.273  0.00  0.00    -0.273 OA
ATOM     14  N   VAL A   3      26.738  36.384  16.006  0.00  0.00    -0.297 N 
ATOM     15  H   VAL A   3      26.429  35.585  15.416  0.00  0.00    +0.150 HD
BRANCH  12  18
ATOM     16  C   THR A   1      27.312  36.445  12.876  0.00  0.00    +0.244 C 
ATOM     17  N   PRO A   2      26.058  36.678  13.298  0.00  0.00    -0.272 N 
ATOM     18  CA  PRO A   2      25.799  37.779  14.235  0.00  0.00    +0.152 C 
ATOM     19  CB  PRO A   2      24.271  37.766  14.385  0.00  0.00    +0.031 C 
ATOM     20  CG  PRO A   2      23.863  36.380  14.026  0.00  0.00    +0.024 C 
ATOM     21  CD  PRO A   2      24.822  35.940  12.967  0.00  0.00    +0.094 C 
ATOM     22  O   THR A   1      28.270  37.124  13.249  0.00  0.00    -0.273 OA
BRANCH  16  23
ATOM     23  CA  THR A   1      27.536  35.259  11.933  0.00  0.00    +0.172 C 
BRANCH  23  24
ATOM     24  CB  THR A   1      27.925  33.983  12.735  0.00  0.00    +0.135 C 
ATOM     25  CG2 THR A   1      29.305  34.110  13.372  0.00  0.00    +0.034 C 
BRANCH  24  26
ATOM     26  OG1 THR A   1      26.953  33.728  13.750  0.00  0.00    -0.383 OA
ATOM     27  HG1 THR A   1      26.911  34.501  14.367  0.00  0.00    +0.210 HD
ENDBRANCH  24  26
ENDBRANCH  23  24
BRANCH  23  28
ATOM     28  N   THR A   1      28.570  35.606  10.968  0.00  0.00    -0.236 NA
ATOM     29  H   THR A   1      29.508  35.165  11.053  0.00  0.00    +0.142 HD
ENDBRANCH  23  28
ENDBRANCH  16  23
ENDBRANCH  12  18
ENDBRANCH  11  14
BRANCH  11  30
ATOM     30  CB  VAL A   3      26.512  36.067  18.492  0.00  0.00    +0.027 C 
ATOM     31  CG2 VAL A   3      25.861  37.426  18.759  0.00  0.00    +0.002 C 
ATOM     32  CG1 VAL A   3      25.460  34.986  18.362  0.00  0.00    +0.002 C 
ENDBRANCH  11  30
ENDBRANCH   7  11
ENDBRANCH   6   8
BRANCH   6  33
ATOM     33  CB  ASN A   4      31.094  33.285  18.892  0.00  0.00    +0.114 C 
BRANCH  33  34
ATOM     34  CG  ASN A   4      32.210  34.246  18.468  0.00  0.00    +0.222 C 
ATOM     35  ND2 ASN A   4      32.844  34.860  19.462  0.00  0.00    -0.329 N 
ATOM     36 HD21 ASN A   4      32.551  34.696  20.446  0.00  0.00    +0.145 HD
ATOM     37 HD22 ASN A   4      33.633  35.505  19.256  0.00  0.00    +0.145 HD
ATOM     38  OD1 ASN A   4      32.521  34.408  17.278  0.00  0.00    -0.275 OA
ENDBRANCH  33  34
ENDBRANCH   6  33
ENDBRANCH   2   6
ENDBRANCH   1   4
BRANCH   1  39
ATOM     39  C   ILE A   5      28.592  28.733  18.083  0.00  0.00    +0.241 C 
ATOM     40  N   ILE A   6      28.352  27.973  19.146  0.00  0.00    -0.297 N 
ATOM     41  H   ILE A   6      27.829  28.381  19.947  0.00  0.00    +0.150 HD
ATOM     42  O   ILE A   5      29.363  28.415  17.170  0.00  0.00    -0.273 OA
BRANCH  40  43
ATOM     43  CA  ILE A   6      28.794  26.595  19.227  0.00  0.00    +0.149 C 
BRANCH  43  44
ATOM     44  C   ILE A   6      27.637  25.693  18.821  0.00  0.00    +0.241 C 
ATOM     45  O   ILE A   6      26.615  25.608  19.523  0.00  0.00    -0.273 OA
ATOM     46  N   GLY A   7      27.803  25.011  17.697  0.00  0.00    -0.295 N 
ATOM     47  H   GLY A   7      28.705  25.088  17.185  0.00  0.00    +0.150 HD
BRANCH  46  48
ATOM     48  CA  GLY A   7      26.758  24.160  17.164  0.00  0.00    +0.176 C 
BRANCH  48  49
ATOM     49  C   GLY A   7      26.909  22.703  17.549  0.00  0.00    +0.243 C 
ATOM     50  O   GLY A   7      27.849  22.322  18.242  0.00  0.00    -0.273 OA
ATOM     51  N   ARG A   8      25.994  21.881  17.051  0.00  0.00    -0.298 N 
ATOM     52  H   ARG A   8      25.314  22.247  16.355  0.00  0.00    +0.150 HD
BRANCH  51  53
ATOM     53  CA  ARG A   8      25.912  20.479  17.449  0.00  0.00    +0.137 C 
BRANCH  53  54
ATOM     54  C   ARG A   8      27.180  19.666  17.138  0.00  0.00    +0.227 C 
ATOM     55  O   ARG A   8      27.478  18.726  17.860  0.00  0.00    -0.286 OA
ENDBRANCH  53  54
BRANCH  53  56
ATOM     56  CB  ARG A   8      24.694  19.794  16.826  0.00  0.00    +0.031 C 
BRANCH  56  57
ATOM     57  CG  ARG A   8      23.351  20.305  17.368  0.00  0.00    +0.045 C 
BRANCH  57  58
ATOM     58  CD  ARG A   8      22.160  19.463  16.913  0.00  0.00    +0.174 C 
BRANCH  58  59
ATOM     59  NE  ARG A   8      22.050  19.464  15.454  0.00  0.00    -0.265 N 
ATOM     60  HE  ARG A   8      21.587  20.286  15.015  0.00  0.00    +0.259 HD
ATOM     61  CZ  ARG A   8      22.489  18.507  14.636  0.00  0.00    +0.342 C 
ATOM     62  NH2 ARG A   8      23.048  17.398  15.094  0.00  0.00    -0.292 N 
ATOM     63 HH21 ARG A   8      23.155  17.254  16.118  0.00  0.00    +0.255 HD
ATOM     64 HH22 ARG A   8      23.380  16.670  14.429  0.00  0.00    +0.255 HD
ATOM     65  NH1 ARG A   8      22.359  18.670  13.330  0.00  0.00    -0.292 N 
ATOM     66 HH11 ARG A   8      21.920  19.535  12.955  0.00  0.00    +0.255 HD
ATOM     67 HH12 ARG A   8      22.696  17.933  12.678  0.00  0.00    +0.255 HD
ENDBRANCH  58  59
ENDBRANCH  57  58
ENDBRANCH  56  57
ENDBRANCH  53  56
ENDBRANCH  51  53
ENDBRANCH  48  49
ENDBRANCH  46  48
ENDBRANCH  43  44
BRANCH  43  68
ATOM     68  CB  ILE A   6      29.254  26.196  20.637  0.00  0.00    +0.027 C 
ATOM     69  CG2 ILE A   6      29.781  24.743  20.607  0.00  0.00    +0.002 C 
BRANCH  68  70
ATOM     70  CG1 ILE A   6      30.301  27.174  21.181  0.00  0.00    +0.002 C 
ATOM     71  CD1 ILE A   6      31.512  27.407  20.291  0.00  0.00    +0.000 C 
ENDBRANCH  68  70
ENDBRANCH  43  68
ENDBRANCH  40  43
ENDBRANCH   1  39
BRANCH   1  72
ATOM     72  CB  ILE A   5      26.584  29.984  17.188  0.00  0.00    +0.027 C 
ATOM     73  CG2 ILE A   5      25.807  31.270  17.250  0.00  0.00    +0.002 C 
BRANCH  72  74
ATOM     74  CG1 ILE A   5      26.888  29.589  15.734  0.00  0.00    +0.002 C 
ATOM     75  CD1 ILE A   5      25.641  29.542  14.856  0.00  0.00    +0.000 C 
ENDBRANCH  72  74
ENDBRANCH   1  72
TORSDOF 28
REMARK  Name = ../refined-set-2016/3gi4/3gi4_pocket.pdb
REMARK  207 active torsions:
REMARK  status: ('A' for Active; 'I' for Inactive)
REMARK    1  A    between atoms: _1  and  _3
REMARK    2  A    between atoms: _3  and  _4
REMARK    3  A    between atoms: _3  and  _6
REMARK    4  A    between atoms: _6  and  _7
REMARK    5  A    between atoms: _7  and  _8
REMARK    6  A    between atoms: _8  and  _9
REMARK    7  A    between atoms: _18  and  _20
REMARK    8  A    between atoms: _20  and  _21
REMARK    9  A    between atoms: _20  and  _23
REMARK   10  A    between atoms: _23  and  _24
REMARK   11  A    between atoms: _27  and  _29
REMARK   12  A    between atoms: _29  and  _30
REMARK   13  A    between atoms: _29  and  _32
REMARK   14  A    between atoms: _32  and  _33
REMARK   15  A    between atoms: _36  and  _38
REMARK   16  A    between atoms: _38  and  _39
REMARK   17  A    between atoms: _38  and  _41
REMARK   18  A    between atoms: _41  and  _42
REMARK   19  A    between atoms: _45  and  _47
REMARK   20  A    between atoms: _47  and  _48
REMARK   21  A    between atoms: _47  and  _50
REMARK   22  A    between atoms: _50  and  _51
REMARK   23  A    between atoms: _54  and  _56
REMARK   24  A    between atoms: _56  and  _57
REMARK   25  A    between atoms: _59  and  _61
REMARK   26  A    between atoms: _61  and  _62
REMARK   27  A    between atoms: _65  and  _67
REMARK   28  A    between atoms: _67  and  _68
REMARK   29  A    between atoms: _67  and  _70
REMARK   30  A    between atoms: _70  and  _71
REMARK   31  A    between atoms: _74  and  _76
REMARK   32  A    between atoms: _76  and  _77
REMARK   33  A    between atoms: _76  and  _79
REMARK   34  A    between atoms: _79  and  _80
REMARK   35  A    between atoms: _83  and  _85
REMARK   36  A    between atoms: _85  and  _86
REMARK   37  A    between atoms: _85  and  _88
REMARK   38  A    between atoms: _88  and  _89
REMARK   39  A    between atoms: _92  and  _94
REMARK   40  A    between atoms: _94  and  _95
REMARK   41  A    between atoms: _94  and  _97
REMARK   42  A    between atoms: _100  and  _102
REMARK   43  A    between atoms: _102  and  _103
REMARK   44  A    between atoms: _102  and  _105
REMARK   45  A    between atoms: _105  and  _106
REMARK   46  A    between atoms: _109  and  _111
REMARK   47  A    between atoms: _111  and  _112
REMARK   48  A    between atoms: _114  and  _116
REMARK   49  A    between atoms: _116  and  _117
REMARK   50  A    between atoms: _119  and  _121
REMARK   51  A    between atoms: _121  and  _122
REMARK   52  A    between atoms: _121  and  _124
REMARK   53  A    between atoms: _124  and  _125
REMARK   54  A    between atoms: _128  and  _130
REMARK   55  A    between atoms: _130  and  _131
REMARK   56  A    between atoms: _133  and  _135
REMARK   57  A    between atoms: _135  and  _136
REMARK   58  A    between atoms: _138  and  _140
REMARK   59  A    between atoms: _140  and  _141
REMARK   60  A    between atoms: _140  and  _143
REMARK   61  A    between atoms: _143  and  _144
REMARK   62  A    between atoms: _150  and  _152
REMARK   63  A    between atoms: _152  and  _153
REMARK   64  A    between atoms: _152  and  _155
REMARK   65  A    between atoms: _155  and  _156
REMARK   66  A    between atoms: _159  and  _161
REMARK   67  A    between atoms: _161  and  _162
REMARK   68  A    between atoms: _161  and  _164
REMARK   69  A    between atoms: _164  and  _165
REMARK   70  A    between atoms: _169  and  _170
REMARK   71  A    between atoms: _175  and  _177
REMARK   72  A    between atoms: _177  and  _178
REMARK   73  A    between atoms: _177  and  _180
REMARK   74  A    between atoms: _183  and  _185
REMARK   75  A    between atoms: _185  and  _186
REMARK   76  A    between atoms: _185  and  _188
REMARK   77  A    between atoms: _188  and  _189
REMARK   78  A    between atoms: _194  and  _196
REMARK   79  A    between atoms: _196  and  _197
REMARK   80  A    between atoms: _196  and  _199
REMARK   81  A    between atoms: _199  and  _200
REMARK   82  A    between atoms: _203  and  _205
REMARK   83  A    between atoms: _205  and  _206
REMARK   84  A    between atoms: _205  and  _208
REMARK   85  A    between atoms: _208  and  _209
REMARK   86  A    between atoms: _212  and  _214
REMARK   87  A    between atoms: _214  and  _215
REMARK   88  A    between atoms: _217  and  _219
REMARK   89  A    between atoms: _219  and  _220
REMARK   90  A    between atoms: _219  and  _222
REMARK   91  A    between atoms: _222  and  _223
REMARK   92  A    between atoms: _223  and  _224
REMARK   93  A    between atoms: _224  and  _225
REMARK   94  A    between atoms: _234  and  _236
REMARK   95  A    between atoms: _236  and  _237
REMARK   96  A    between atoms: _236  and  _239
REMARK   97  A    between atoms: _239  and  _240
REMARK   98  A    between atoms: _240  and  _241
REMARK   99  A    between atoms: _241  and  _242
REMARK  100  A    between atoms: _251  and  _253
REMARK  101  A    between atoms: _253  and  _254
REMARK  102  A    between atoms: _253  and  _256
REMARK  103  A    between atoms: _256  and  _257
REMARK  104  A    between atoms: _260  and  _262
REMARK  105  A    between atoms: _262  and  _263
REMARK  106  A    between atoms: _262  and  _265
REMARK  107  A    between atoms: _265  and  _266
REMARK  108  A    between atoms: _269  and  _271
REMARK  109  A    between atoms: _271  and  _272
REMARK  110  A    between atoms: _271  and  _274
REMARK  111  A    between atoms: _274  and  _275
REMARK  112  A    between atoms: _278  and  _280
REMARK  113  A    between atoms: _280  and  _281
REMARK  114  A    between atoms: _280  and  _283
REMARK  115  A    between atoms: _283  and  _284
REMARK  116  A    between atoms: _287  and  _289
REMARK  117  A    between atoms: _289  and  _290
REMARK  118  A    between atoms: _292  and  _294
REMARK  119  A    between atoms: _294  and  _295
REMARK  120  A    between atoms: _298  and  _300
REMARK  121  A    between atoms: _300  and  _301
REMARK  122  A    between atoms: _300  and  _303
REMARK  123  A    between atoms: _303  and  _304
REMARK  124  A    between atoms: _307  and  _309
REMARK  125  A    between atoms: _309  and  _310
REMARK  126  A    between atoms: _309  and  _312
REMARK  127  A    between atoms: _312  and  _313
REMARK  128  A    between atoms: _316  and  _318
REMARK  129  A    between atoms: _318  and  _319
REMARK  130  A    between atoms: _318  and  _321
REMARK  131  A    between atoms: _321  and  _322
REMARK  132  A    between atoms: _325  and  _327
REMARK  133  A    between atoms: _327  and  _328
REMARK  134  A    between atoms: _327  and  _330
REMARK  135  A    between atoms: _333  and  _335
REMARK  136  A    between atoms: _335  and  _336
REMARK  137  A    between atoms: _335  and  _338
REMARK  138  A    between atoms: _338  and  _339
REMARK  139  A    between atoms: _339  and  _340
REMARK  140  A    between atoms: _340  and  _341
REMARK  141  A    between atoms: _341  and  _342
REMARK  142  A    between atoms: _346  and  _348
REMARK  143  A    between atoms: _348  and  _349
REMARK  144  A    between atoms: _348  and  _351
REMARK  145  A    between atoms: _351  and  _352
REMARK  146  A    between atoms: _352  and  _353
REMARK  147  A    between atoms: _355  and  _357
REMARK  148  A    between atoms: _357  and  _358
REMARK  149  A    between atoms: _357  and  _360
REMARK  150  A    between atoms: _360  and  _361
REMARK  151  A    between atoms: _364  and  _366
REMARK  152  A    between atoms: _366  and  _367
REMARK  153  A    between atoms: _369  and  _371
REMARK  154  A    between atoms: _371  and  _372
REMARK  155  A    between atoms: _374  and  _376
REMARK  156  A    between atoms: _376  and  _377
REMARK  157  A    between atoms: _376  and  _379
REMARK  158  A    between atoms: _379  and  _380
REMARK  159  A    between atoms: _383  and  _385
REMARK  160  A    between atoms: _385  and  _386
REMARK  161  A    between atoms: _388  and  _390
REMARK  162  A    between atoms: _390  and  _391
REMARK  163  A    between atoms: _393  and  _395
REMARK  164  A    between atoms: _395  and  _396
REMARK  165  A    between atoms: _395  and  _398
REMARK  166  A    between atoms: _398  and  _399
REMARK  167  A    between atoms: _405  and  _407
REMARK  168  A    between atoms: _407  and  _408
REMARK  169  A    between atoms: _407  and  _410
REMARK  170  A    between atoms: _410  and  _411
REMARK  171  A    between atoms: _414  and  _416
REMARK  172  A    between atoms: _416  and  _417
REMARK  173  A    between atoms: _416  and  _419
REMARK  174  A    between atoms: _419  and  _420
REMARK  175  A    between atoms: _424  and  _425
REMARK  176  A    between atoms: _430  and  _432
REMARK  177  A    between atoms: _432  and  _433
REMARK  178  A    between atoms: _432  and  _435
REMARK  179  A    between atoms: _435  and  _436
REMARK  180  A    between atoms: _440  and  _441
REMARK  181  A    between atoms: _446  and  _448
REMARK  182  A    between atoms: _448  and  _449
REMARK  183  A    between atoms: _448  and  _451
REMARK  184  A    between atoms: _454  and  _456
REMARK  185  A    between atoms: _456  and  _457
REMARK  186  A    between atoms: _456  and  _459
REMARK  187  A    between atoms: _459  and  _460
REMARK  188  A    between atoms: _465  and  _467
REMARK  189  A    between atoms: _467  and  _468
REMARK  190  A    between atoms: _467  and  _470
REMARK  191  A    between atoms: _470  and  _471
REMARK  192  A    between atoms: _474  and  _476
REMARK  193  A    between atoms: _476  and  _477
REMARK  194  A    between atoms: _476  and  _479
REMARK  195  A    between atoms: _479  and  _480
REMARK  196  A    between atoms: _483  and  _485
REMARK  197  A    between atoms: _485  and  _486
REMARK  198  A    between atoms: _488  and  _490
REMARK  199  A    between atoms: _490  and  _491
REMARK  200  A    between atoms: _490  and  _493
REMARK  201  A    between atoms: _493  and  _494
REMARK  202  A    between atoms: _494  and  _495
REMARK  203  A    between atoms: _495  and  _496
REMARK  204  A    between atoms: _505  and  _507
REMARK  205  A    between atoms: _507  and  _508
REMARK  206  A    between atoms: _507  and  _510
REMARK  207  A    between atoms: _510  and  _511
REMARK                            x       y       z     vdW  Elec       q    Type
REMARK                         _______ _______ _______ _____ _____    ______ ____
ROOT
ATOM      1  NE  ARG A   1      19.129  20.246  10.868  0.00  0.00    -0.265 N 
ATOM      2  HE  ARG A   1      19.953  20.726  11.282  0.00  0.00    +0.259 HD
ATOM      3  CZ  ARG A   1      18.986  20.300   9.548  0.00  0.00    +0.342 C 
ATOM      4  NH2 ARG A   1      17.948  19.729   8.938  0.00  0.00    -0.292 N 
ATOM      5 HH21 ARG A   1      17.228  19.228   9.496  0.00  0.00    +0.255 HD
ATOM      6 HH22 ARG A   1      17.858  19.785   7.903  0.00  0.00    +0.255 HD
ATOM      7  NH1 ARG A   1      19.884  20.952   8.819  0.00  0.00    -0.292 N 
ATOM      8 HH11 ARG A   1      20.692  21.416   9.282  0.00  0.00    +0.255 HD
ATOM      9 HH12 ARG A   1      19.780  20.999   7.785  0.00  0.00    +0.255 HD
ENDROOT
BRANCH   1  10
ATOM     10  CD  ARG A   1      18.215  19.563  11.782  0.00  0.00    +0.174 C 
BRANCH  10  11
ATOM     11  CG  ARG A   1      18.875  19.292  13.103  0.00  0.00    +0.045 C 
BRANCH  11  12
ATOM     12  CB  ARG A   1      17.904  18.741  14.116  0.00  0.00    +0.029 C 
BRANCH  12  13
ATOM     13  CA  ARG A   1      18.586  18.104  15.323  0.00  0.00    +0.133 C 
BRANCH  13  14
ATOM     14  N   ARG A   1      19.284  16.887  14.936  0.00  0.00    -0.239 NA
ATOM     15  H   ARG A   1      19.244  16.561  13.949  0.00  0.00    +0.142 HD
ENDBRANCH  13  14
BRANCH  13  16
ATOM     16  C   ARG A   1      17.558  17.762  16.408  0.00  0.00    +0.224 C 
ATOM     17  O   ARG A   1      16.877  16.743  16.309  0.00  0.00    -0.287 OA
ENDBRANCH  13  16
ENDBRANCH  12  13
ENDBRANCH  11  12
ENDBRANCH  10  11
ENDBRANCH   1  10
TORSDOF 6
REMARK  Name = ../refined-set-2016/3gi4/3gi4_pocket.pdb
REMARK  207 active torsions:
REMARK  status: ('A' for Active; 'I' for Inactive)
REMARK    1  A    between atoms: _1  and  _3
REMARK    2  A    between atoms: _3  and  _4
REMARK    3  A    between atoms: _3  and  _6
REMARK    4  A    between atoms: _6  and  _7
REMARK    5  A    between atoms: _7  and  _8
REMARK    6  A    between atoms: _8  and  _9
REMARK    7  A    between atoms: _18  and  _20
REMARK    8  A    between atoms: _20  and  _21
REMARK    9  A    between atoms: _20  and  _23
REMARK   10  A    between atoms: _23  and  _24
REMARK   11  A    between atoms: _27  and  _29
REMARK   12  A    between atoms: _29  and  _30
REMARK   13  A    between atoms: _29  and  _32
REMARK   14  A    between atoms: _32  and  _33
REMARK   15  A    between atoms: _36  and  _38
REMARK   16  A    between atoms: _38  and  _39
REMARK   17  A    between atoms: _38  and  _41
REMARK   18  A    between atoms: _41  and  _42
REMARK   19  A    between atoms: _45  and  _47
REMARK   20  A    between atoms: _47  and  _48
REMARK   21  A    between atoms: _47  and  _50
REMARK   22  A    between atoms: _50  and  _51
REMARK   23  A    between atoms: _54  and  _56
REMARK   24  A    between atoms: _56  and  _57
REMARK   25  A    between atoms: _59  and  _61
REMARK   26  A    between atoms: _61  and  _62
REMARK   27  A    between atoms: _65  and  _67
REMARK   28  A    between atoms: _67  and  _68
REMARK   29  A    between atoms: _67  and  _70
REMARK   30  A    between atoms: _70  and  _71
REMARK   31  A    between atoms: _74  and  _76
REMARK   32  A    between atoms: _76  and  _77
REMARK   33  A    between atoms: _76  and  _79
REMARK   34  A    between atoms: _79  and  _80
REMARK   35  A    between atoms: _83  and  _85
REMARK   36  A    between atoms: _85  and  _86
REMARK   37  A    between atoms: _85  and  _88
REMARK   38  A    between atoms: _88  and  _89
REMARK   39  A    between atoms: _92  and  _94
REMARK   40  A    between atoms: _94  and  _95
REMARK   41  A    between atoms: _94  and  _97
REMARK   42  A    between atoms: _100  and  _102
REMARK   43  A    between atoms: _102  and  _103
REMARK   44  A    between atoms: _102  and  _105
REMARK   45  A    between atoms: _105  and  _106
REMARK   46  A    between atoms: _109  and  _111
REMARK   47  A    between atoms: _111  and  _112
REMARK   48  A    between atoms: _114  and  _116
REMARK   49  A    between atoms: _116  and  _117
REMARK   50  A    between atoms: _119  and  _121
REMARK   51  A    between atoms: _121  and  _122
REMARK   52  A    between atoms: _121  and  _124
REMARK   53  A    between atoms: _124  and  _125
REMARK   54  A    between atoms: _128  and  _130
REMARK   55  A    between atoms: _130  and  _131
REMARK   56  A    between atoms: _133  and  _135
REMARK   57  A    between atoms: _135  and  _136
REMARK   58  A    between atoms: _138  and  _140
REMARK   59  A    between atoms: _140  and  _141
REMARK   60  A    between atoms: _140  and  _143
REMARK   61  A    between atoms: _143  and  _144
REMARK   62  A    between atoms: _150  and  _152
REMARK   63  A    between atoms: _152  and  _153
REMARK   64  A    between atoms: _152  and  _155
REMARK   65  A    between atoms: _155  and  _156
REMARK   66  A    between atoms: _159  and  _161
REMARK   67  A    between atoms: _161  and  _162
REMARK   68  A    between atoms: _161  and  _164
REMARK   69  A    between atoms: _164  and  _165
REMARK   70  A    between atoms: _169  and  _170
REMARK   71  A    between atoms: _175  and  _177
REMARK   72  A    between atoms: _177  and  _178
REMARK   73  A    between atoms: _177  and  _180
REMARK   74  A    between atoms: _183  and  _185
REMARK   75  A    between atoms: _185  and  _186
REMARK   76  A    between atoms: _185  and  _188
REMARK   77  A    between atoms: _188  and  _189
REMARK   78  A    between atoms: _194  and  _196
REMARK   79  A    between atoms: _196  and  _197
REMARK   80  A    between atoms: _196  and  _199
REMARK   81  A    between atoms: _199  and  _200
REMARK   82  A    between atoms: _203  and  _205
REMARK   83  A    between atoms: _205  and  _206
REMARK   84  A    between atoms: _205  and  _208
REMARK   85  A    between atoms: _208  and  _209
REMARK   86  A    between atoms: _212  and  _214
REMARK   87  A    between atoms: _214  and  _215
REMARK   88  A    between atoms: _217  and  _219
REMARK   89  A    between atoms: _219  and  _220
REMARK   90  A    between atoms: _219  and  _222
REMARK   91  A    between atoms: _222  and  _223
REMARK   92  A    between atoms: _223  and  _224
REMARK   93  A    between atoms: _224  and  _225
REMARK   94  A    between atoms: _234  and  _236
REMARK   95  A    between atoms: _236  and  _237
REMARK   96  A    between atoms: _236  and  _239
REMARK   97  A    between atoms: _239  and  _240
REMARK   98  A    between atoms: _240  and  _241
REMARK   99  A    between atoms: _241  and  _242
REMARK  100  A    between atoms: _251  and  _253
REMARK  101  A    between atoms: _253  and  _254
REMARK  102  A    between atoms: _253  and  _256
REMARK  103  A    between atoms: _256  and  _257
REMARK  104  A    between atoms: _260  and  _262
REMARK  105  A    between atoms: _262  and  _263
REMARK  106  A    between atoms: _262  and  _265
REMARK  107  A    between atoms: _265  and  _266
REMARK  108  A    between atoms: _269  and  _271
REMARK  109  A    between atoms: _271  and  _272
REMARK  110  A    between atoms: _271  and  _274
REMARK  111  A    between atoms: _274  and  _275
REMARK  112  A    between atoms: _278  and  _280
REMARK  113  A    between atoms: _280  and  _281
REMARK  114  A    between atoms: _280  and  _283
REMARK  115  A    between atoms: _283  and  _284
REMARK  116  A    between atoms: _287  and  _289
REMARK  117  A    between atoms: _289  and  _290
REMARK  118  A    between atoms: _292  and  _294
REMARK  119  A    between atoms: _294  and  _295
REMARK  120  A    between atoms: _298  and  _300
REMARK  121  A    between atoms: _300  and  _301
REMARK  122  A    between atoms: _300  and  _303
REMARK  123  A    between atoms: _303  and  _304
REMARK  124  A    between atoms: _307  and  _309
REMARK  125  A    between atoms: _309  and  _310
REMARK  126  A    between atoms: _309  and  _312
REMARK  127  A    between atoms: _312  and  _313
REMARK  128  A    between atoms: _316  and  _318
REMARK  129  A    between atoms: _318  and  _319
REMARK  130  A    between atoms: _318  and  _321
REMARK  131  A    between atoms: _321  and  _322
REMARK  132  A    between atoms: _325  and  _327
REMARK  133  A    between atoms: _327  and  _328
REMARK  134  A    between atoms: _327  and  _330
REMARK  135  A    between atoms: _333  and  _335
REMARK  136  A    between atoms: _335  and  _336
REMARK  137  A    between atoms: _335  and  _338
REMARK  138  A    between atoms: _338  and  _339
REMARK  139  A    between atoms: _339  and  _340
REMARK  140  A    between atoms: _340  and  _341
REMARK  141  A    between atoms: _341  and  _342
REMARK  142  A    between atoms: _346  and  _348
REMARK  143  A    between atoms: _348  and  _349
REMARK  144  A    between atoms: _348  and  _351
REMARK  145  A    between atoms: _351  and  _352
REMARK  146  A    between atoms: _352  and  _353
REMARK  147  A    between atoms: _355  and  _357
REMARK  148  A    between atoms: _357  and  _358
REMARK  149  A    between atoms: _357  and  _360
REMARK  150  A    between atoms: _360  and  _361
REMARK  151  A    between atoms: _364  and  _366
REMARK  152  A    between atoms: _366  and  _367
REMARK  153  A    between atoms: _369  and  _371
REMARK  154  A    between atoms: _371  and  _372
REMARK  155  A    between atoms: _374  and  _376
REMARK  156  A    between atoms: _376  and  _377
REMARK  157  A    between atoms: _376  and  _379
REMARK  158  A    between atoms: _379  and  _380
REMARK  159  A    between atoms: _383  and  _385
REMARK  160  A    between atoms: _385  and  _386
REMARK  161  A    between atoms: _388  and  _390
REMARK  162  A    between atoms: _390  and  _391
REMARK  163  A    between atoms: _393  and  _395
REMARK  164  A    between atoms: _395  and  _396
REMARK  165  A    between atoms: _395  and  _398
REMARK  166  A    between atoms: _398  and  _399
REMARK  167  A    between atoms: _405  and  _407
REMARK  168  A    between atoms: _407  and  _408
REMARK  169  A    between atoms: _407  and  _410
REMARK  170  A    between atoms: _410  and  _411
REMARK  171  A    between atoms: _414  and  _416
REMARK  172  A    between atoms: _416  and  _417
REMARK  173  A    between atoms: _416  and  _419
REMARK  174  A    between atoms: _419  and  _420
REMARK  175  A    between atoms: _424  and  _425
REMARK  176  A    between atoms: _430  and  _432
REMARK  177  A    between atoms: _432  and  _433
REMARK  178  A    between atoms: _432  and  _435
REMARK  179  A    between atoms: _435  and  _436
REMARK  180  A    between atoms: _440  and  _441
REMARK  181  A    between atoms: _446  and  _448
REMARK  182  A    between atoms: _448  and  _449
REMARK  183  A    between atoms: _448  and  _451
REMARK  184  A    between atoms: _454  and  _456
REMARK  185  A    between atoms: _456  and  _457
REMARK  186  A    between atoms: _456  and  _459
REMARK  187  A    between atoms: _459  and  _460
REMARK  188  A    between atoms: _465  and  _467
REMARK  189  A    between atoms: _467  and  _468
REMARK  190  A    between atoms: _467  and  _470
REMARK  191  A    between atoms: _470  and  _471
REMARK  192  A    between atoms: _474  and  _476
REMARK  193  A    between atoms: _476  and  _477
REMARK  194  A    between atoms: _476  and  _479
REMARK  195  A    between atoms: _479  and  _480
REMARK  196  A    between atoms: _483  and  _485
REMARK  197  A    between atoms: _485  and  _486
REMARK  198  A    between atoms: _488  and  _490
REMARK  199  A    between atoms: _490  and  _491
REMARK  200  A    between atoms: _490  and  _493
REMARK  201  A    between atoms: _493  and  _494
REMARK  202  A    between atoms: _494  and  _495
REMARK  203  A    between atoms: _495  and  _496
REMARK  204  A    between atoms: _505  and  _507
REMARK  205  A    between atoms: _507  and  _508
REMARK  206  A    between atoms: _507  and  _510
REMARK  207  A    between atoms: _510  and  _511
REMARK                            x       y       z     vdW  Elec       q    Type
REMARK                         _______ _______ _______ _____ _____    ______ ____
ROOT
ATOM      1  C   GLY A   5      19.438  30.898  20.233  0.00  0.00    +0.243 C 
ATOM      2  N   ALA A   6      18.161  30.612  20.477  0.00  0.00    -0.297 N 
ATOM      3  H   ALA A   6      17.938  29.721  20.966  0.00  0.00    +0.150 HD
ATOM      4  O   GLY A   5      19.805  31.940  19.686  0.00  0.00    -0.273 OA
ENDROOT
BRANCH   2   5
ATOM      5  CA  ALA A   6      17.054  31.492  20.090  0.00  0.00    +0.149 C 
ATOM      6  CB  ALA A   6      15.976  30.686  19.370  0.00  0.00    +0.031 C 
BRANCH   5   7
ATOM      7  C   ALA A   6      16.468  32.165  21.329  0.00  0.00    +0.241 C 
ATOM      8  O   ALA A   6      15.916  31.487  22.199  0.00  0.00    -0.273 OA
ATOM      9  N   ASP A   7      16.572  33.492  21.418  0.00  0.00    -0.297 N 
ATOM     10  H   ASP A   7      17.091  34.020  20.687  0.00  0.00    +0.150 HD
BRANCH   9  11
ATOM     11  CA  ASP A   7      15.957  34.214  22.544  0.00  0.00    +0.160 C 
BRANCH  11  12
ATOM     12  C   ASP A   7      14.440  33.991  22.544  0.00  0.00    +0.241 C 
ATOM     13  O   ASP A   7      13.820  33.780  23.603  0.00  0.00    -0.273 OA
ATOM     14  N   ASP A   8      13.877  34.015  21.335  0.00  0.00    -0.297 N 
ATOM     15  H   ASP A   8      14.509  34.006  20.509  0.00  0.00    +0.150 HD
BRANCH  14  16
ATOM     16  CA  ASP A   8      12.446  34.053  21.087  0.00  0.00    +0.160 C 
BRANCH  16  17
ATOM     17  C   ASP A   8      12.011  32.840  20.278  0.00  0.00    +0.241 C 
ATOM     18  N   THR A   9      10.730  32.520  20.383  0.00  0.00    -0.295 N 
ATOM     19  H   THR A   9      10.132  33.075  21.028  0.00  0.00    +0.150 HD
ATOM     20  O   ASP A   8      12.813  32.216  19.574  0.00  0.00    -0.273 OA
BRANCH  18  21
ATOM     21  CA  THR A   9      10.121  31.431  19.641  0.00  0.00    +0.176 C 
BRANCH  21  22
ATOM     22  C   THR A   9       9.643  31.989  18.300  0.00  0.00    +0.243 C 
ATOM     23  O   THR A   9       8.914  32.992  18.248  0.00  0.00    -0.273 OA
ATOM     24  N   VAL A  10      10.068  31.339  17.223  0.00  0.00    -0.298 N 
ATOM     25  H   VAL A  10      10.647  30.485  17.356  0.00  0.00    +0.150 HD
BRANCH  24  26
ATOM     26  CA  VAL A  10       9.763  31.764  15.866  0.00  0.00    +0.137 C 
BRANCH  26  27
ATOM     27  CB  VAL A  10      11.019  32.224  15.083  0.00  0.00    +0.026 C 
ATOM     28  CG2 VAL A  10      11.913  33.128  15.938  0.00  0.00    +0.002 C 
ATOM     29  CG1 VAL A  10      10.594  32.966  13.812  0.00  0.00    +0.002 C 
ENDBRANCH  26  27
BRANCH  26  30
ATOM     30  C   VAL A  10       9.126  30.603  15.108  0.00  0.00    +0.227 C 
ATOM     31  O   VAL A  10       9.758  29.561  14.907  0.00  0.00    -0.286 OA
ENDBRANCH  26  30
ENDBRANCH  24  26
ENDBRANCH  21  22
BRANCH  21  32
ATOM     32  CB  THR A   9       8.953  30.805  20.466  0.00  0.00    +0.137 C 
ATOM     33  CG2 THR A   9       8.191  29.747  19.690  0.00  0.00    +0.034 C 
BRANCH  32  34
ATOM     34  OG1 THR A   9       9.494  30.209  21.647  0.00  0.00    -0.382 OA
ATOM     35  HG1 THR A   9       9.952  30.902  22.185  0.00  0.00    +0.210 HD
ENDBRANCH  32  34
ENDBRANCH  21  32
ENDBRANCH  18  21
ENDBRANCH  16  17
BRANCH  16  36
ATOM     36  CB  ASP A   8      12.099  35.309  20.285  0.00  0.00    +0.143 C 
BRANCH  36  37
ATOM     37  CG  ASP A   8      12.587  36.583  20.941  0.00  0.00    +0.367 C 
ATOM     38  OD2 ASP A   8      12.434  36.728  22.172  0.00  0.00    -0.246 OA
ATOM     39  OD1 ASP A   8      13.097  37.460  20.208  0.00  0.00    -0.246 OA
ENDBRANCH  36  37
ENDBRANCH  16  36
ENDBRANCH  14  16
ENDBRANCH  11  12
BRANCH  11  40
ATOM     40  CB  ASP A   7      16.209  35.729  22.461  0.00  0.00    +0.143 C 
BRANCH  40  41
ATOM     41  CG  ASP A   7      17.679  36.102  22.491  0.00  0.00    +0.367 C 
ATOM     42  OD2 ASP A   7      18.507  35.333  23.006  0.00  0.00    -0.246 OA
ATOM     43  OD1 ASP A   7      17.995  37.206  22.012  0.00  0.00    -0.246 OA
ENDBRANCH  40  41
ENDBRANCH  11  40
ENDBRANCH   9  11
ENDBRANCH   5   7
ENDBRANCH   2   5
BRANCH   1  44
ATOM     44  CA  GLY A   5      20.468  29.855  20.663  0.00  0.00    +0.176 C 
BRANCH  44  47
ATOM     45  C   THR A   4      19.664  28.590  22.615  0.00  0.00    +0.243 C 
ATOM     46  O   THR A   4      19.928  29.508  23.400  0.00  0.00    -0.273 OA
ATOM     47  N   GLY A   5      19.918  28.651  21.304  0.00  0.00    -0.295 N 
ATOM     48  H   GLY A   5      19.719  27.817  20.716  0.00  0.00    +0.150 HD
BRANCH  45  49
ATOM     49  CA  THR A   4      19.015  27.310  23.132  0.00  0.00    +0.176 C 
BRANCH  49  51
ATOM     50  C   ASP A   3      17.311  26.902  21.420  0.00  0.00    +0.241 C 
ATOM     51  N   THR A   4      18.410  26.514  22.063  0.00  0.00    -0.295 N 
ATOM     52  H   THR A   4      18.855  25.613  21.796  0.00  0.00    +0.150 HD
ATOM     53  O   ASP A   3      16.740  27.983  21.651  0.00  0.00    -0.273 OA
BRANCH  50  54
ATOM     54  CA  ASP A   3      16.814  25.942  20.318  0.00  0.00    +0.160 C 
BRANCH  54  56
ATOM     55  C   LEU A   2      15.742  23.806  20.761  0.00  0.00    +0.241 C 
ATOM     56  N   ASP A   3      15.686  25.137  20.736  0.00  0.00    -0.297 N 
ATOM     57  H   ASP A   3      14.807  25.611  21.025  0.00  0.00    +0.150 HD
ATOM     58  O   LEU A   2      16.795  23.168  20.644  0.00  0.00    -0.273 OA
BRANCH  55  59
ATOM     59  CA  LEU A   2      14.417  23.078  20.911  0.00  0.00    +0.149 C 
BRANCH  59  61
ATOM     60  C   LEU A   1      13.643  23.293  18.631  0.00  0.00    +0.238 C 
ATOM     61  N   LEU A   2      14.134  22.522  19.595  0.00  0.00    -0.297 N 
ATOM     62  H   LEU A   2      14.317  21.515  19.409  0.00  0.00    +0.150 HD
ATOM     63  O   LEU A   1      13.169  24.396  18.841  0.00  0.00    -0.274 OA
BRANCH  60  64
ATOM     64  CA  LEU A   1      13.696  22.761  17.218  0.00  0.00    +0.145 C 
BRANCH  64  65
ATOM     65  N   LEU A   1      12.379  22.888  16.589  0.00  0.00    -0.238 NA
ATOM     66  H   LEU A   1      12.207  23.697  15.959  0.00  0.00    +0.142 HD
ENDBRANCH  64  65
BRANCH  64  67
ATOM     67  CB  LEU A   1      14.738  23.601  16.491  0.00  0.00    +0.026 C 
BRANCH  67  68
ATOM     68  CG  LEU A   1      15.276  23.187  15.143  0.00  0.00    +0.002 C 
ATOM     69  CD2 LEU A   1      16.036  21.882  15.276  0.00  0.00    +0.000 C 
ATOM     70  CD1 LEU A   1      16.182  24.298  14.621  0.00  0.00    +0.000 C 
ENDBRANCH  67  68
ENDBRANCH  64  67
ENDBRANCH  60  64
ENDBRANCH  59  61
BRANCH  59  71
ATOM     71  CB  LEU A   2      14.530  21.987  21.964  0.00  0.00    +0.029 C 
BRANCH  71  72
ATOM     72  CG  LEU A   2      13.322  21.068  22.128  0.00  0.00    +0.002 C 
ATOM     73  CD2 LEU A   2      13.628  19.997  23.147  0.00  0.00    +0.000 C 
ATOM     74  CD1 LEU A   2      12.066  21.857  22.505  0.00  0.00    +0.000 C 
ENDBRANCH  71  72
ENDBRANCH  59  71
ENDBRANCH  55  59
ENDBRANCH  54  56
BRANCH  54  75
ATOM     75  CB  ASP A   3      16.435  26.715  19.047  0.00  0.00    +0.143 C 
BRANCH  75  76
ATOM     76  CG  ASP A   3      17.626  27.386  18.390  0.00  0.00    +0.367 C 
ATOM     77  OD2 ASP A   3      18.747  27.355  18.949  0.00  0.00    -0.246 OA
ATOM     78  OD1 ASP A   3      17.445  27.935  17.302  0.00  0.00    -0.246 OA
ENDBRANCH  75  76
ENDBRANCH  54  75
ENDBRANCH  50  54
ENDBRANCH  49  51
BRANCH  49  79
ATOM     79  CB  THR A   4      20.074  26.497  23.905  0.00  0.00    +0.137 C 
ATOM     80  CG2 THR A   4      19.449  25.265  24.530  0.00  0.00    +0.034 C 
BRANCH  79  81
ATOM     81  OG1 THR A   4      21.137  26.110  23.017  0.00  0.00    -0.382 OA
ATOM     82  HG1 THR A   4      21.560  26.921  22.637  0.00  0.00    +0.210 HD
ENDBRANCH  79  81
ENDBRANCH  49  79
ENDBRANCH  45  49
ENDBRANCH  44  47
ENDBRANCH   1  44
TORSDOF 35
REMARK  Name = ../refined-set-2016/3gi4/3gi4_pocket.pdb
REMARK  207 active torsions:
REMARK  status: ('A' for Active; 'I' for Inactive)
REMARK    1  A    between atoms: _1  and  _3
REMARK    2  A    between atoms: _3  and  _4
REMARK    3  A    between atoms: _3  and  _6
REMARK    4  A    between atoms: _6  and  _7
REMARK    5  A    between atoms: _7  and  _8
REMARK    6  A    between atoms: _8  and  _9
REMARK    7  A    between atoms: _18  and  _20
REMARK    8  A    between atoms: _20  and  _21
REMARK    9  A    between atoms: _20  and  _23
REMARK   10  A    between atoms: _23  and  _24
REMARK   11  A    between atoms: _27  and  _29
REMARK   12  A    between atoms: _29  and  _30
REMARK   13  A    between atoms: _29  and  _32
REMARK   14  A    between atoms: _32  and  _33
REMARK   15  A    between atoms: _36  and  _38
REMARK   16  A    between atoms: _38  and  _39
REMARK   17  A    between atoms: _38  and  _41
REMARK   18  A    between atoms: _41  and  _42
REMARK   19  A    between atoms: _45  and  _47
REMARK   20  A    between atoms: _47  and  _48
REMARK   21  A    between atoms: _47  and  _50
REMARK   22  A    between atoms: _50  and  _51
REMARK   23  A    between atoms: _54  and  _56
REMARK   24  A    between atoms: _56  and  _57
REMARK   25  A    between atoms: _59  and  _61
REMARK   26  A    between atoms: _61  and  _62
REMARK   27  A    between atoms: _65  and  _67
REMARK   28  A    between atoms: _67  and  _68
REMARK   29  A    between atoms: _67  and  _70
REMARK   30  A    between atoms: _70  and  _71
REMARK   31  A    between atoms: _74  and  _76
REMARK   32  A    between atoms: _76  and  _77
REMARK   33  A    between atoms: _76  and  _79
REMARK   34  A    between atoms: _79  and  _80
REMARK   35  A    between atoms: _83  and  _85
REMARK   36  A    between atoms: _85  and  _86
REMARK   37  A    between atoms: _85  and  _88
REMARK   38  A    between atoms: _88  and  _89
REMARK   39  A    between atoms: _92  and  _94
REMARK   40  A    between atoms: _94  and  _95
REMARK   41  A    between atoms: _94  and  _97
REMARK   42  A    between atoms: _100  and  _102
REMARK   43  A    between atoms: _102  and  _103
REMARK   44  A    between atoms: _102  and  _105
REMARK   45  A    between atoms: _105  and  _106
REMARK   46  A    between atoms: _109  and  _111
REMARK   47  A    between atoms: _111  and  _112
REMARK   48  A    between atoms: _114  and  _116
REMARK   49  A    between atoms: _116  and  _117
REMARK   50  A    between atoms: _119  and  _121
REMARK   51  A    between atoms: _121  and  _122
REMARK   52  A    between atoms: _121  and  _124
REMARK   53  A    between atoms: _124  and  _125
REMARK   54  A    between atoms: _128  and  _130
REMARK   55  A    between atoms: _130  and  _131
REMARK   56  A    between atoms: _133  and  _135
REMARK   57  A    between atoms: _135  and  _136
REMARK   58  A    between atoms: _138  and  _140
REMARK   59  A    between atoms: _140  and  _141
REMARK   60  A    between atoms: _140  and  _143
REMARK   61  A    between atoms: _143  and  _144
REMARK   62  A    between atoms: _150  and  _152
REMARK   63  A    between atoms: _152  and  _153
REMARK   64  A    between atoms: _152  and  _155
REMARK   65  A    between atoms: _155  and  _156
REMARK   66  A    between atoms: _159  and  _161
REMARK   67  A    between atoms: _161  and  _162
REMARK   68  A    between atoms: _161  and  _164
REMARK   69  A    between atoms: _164  and  _165
REMARK   70  A    between atoms: _169  and  _170
REMARK   71  A    between atoms: _175  and  _177
REMARK   72  A    between atoms: _177  and  _178
REMARK   73  A    between atoms: _177  and  _180
REMARK   74  A    between atoms: _183  and  _185
REMARK   75  A    between atoms: _185  and  _186
REMARK   76  A    between atoms: _185  and  _188
REMARK   77  A    between atoms: _188  and  _189
REMARK   78  A    between atoms: _194  and  _196
REMARK   79  A    between atoms: _196  and  _197
REMARK   80  A    between atoms: _196  and  _199
REMARK   81  A    between atoms: _199  and  _200
REMARK   82  A    between atoms: _203  and  _205
REMARK   83  A    between atoms: _205  and  _206
REMARK   84  A    between atoms: _205  and  _208
REMARK   85  A    between atoms: _208  and  _209
REMARK   86  A    between atoms: _212  and  _214
REMARK   87  A    between atoms: _214  and  _215
REMARK   88  A    between atoms: _217  and  _219
REMARK   89  A    between atoms: _219  and  _220
REMARK   90  A    between atoms: _219  and  _222
REMARK   91  A    between atoms: _222  and  _223
REMARK   92  A    between atoms: _223  and  _224
REMARK   93  A    between atoms: _224  and  _225
REMARK   94  A    between atoms: _234  and  _236
REMARK   95  A    between atoms: _236  and  _237
REMARK   96  A    between atoms: _236  and  _239
REMARK   97  A    between atoms: _239  and  _240
REMARK   98  A    between atoms: _240  and  _241
REMARK   99  A    between atoms: _241  and  _242
REMARK  100  A    between atoms: _251  and  _253
REMARK  101  A    between atoms: _253  and  _254
REMARK  102  A    between atoms: _253  and  _256
REMARK  103  A    between atoms: _256  and  _257
REMARK  104  A    between atoms: _260  and  _262
REMARK  105  A    between atoms: _262  and  _263
REMARK  106  A    between atoms: _262  and  _265
REMARK  107  A    between atoms: _265  and  _266
REMARK  108  A    between atoms: _269  and  _271
REMARK  109  A    between atoms: _271  and  _272
REMARK  110  A    between atoms: _271  and  _274
REMARK  111  A    between atoms: _274  and  _275
REMARK  112  A    between atoms: _278  and  _280
REMARK  113  A    between atoms: _280  and  _281
REMARK  114  A    between atoms: _280  and  _283
REMARK  115  A    between atoms: _283  and  _284
REMARK  116  A    between atoms: _287  and  _289
REMARK  117  A    between atoms: _289  and  _290
REMARK  118  A    between atoms: _292  and  _294
REMARK  119  A    between atoms: _294  and  _295
REMARK  120  A    between atoms: _298  and  _300
REMARK  121  A    between atoms: _300  and  _301
REMARK  122  A    between atoms: _300  and  _303
REMARK  123  A    between atoms: _303  and  _304
REMARK  124  A    between atoms: _307  and  _309
REMARK  125  A    between atoms: _309  and  _310
REMARK  126  A    between atoms: _309  and  _312
REMARK  127  A    between atoms: _312  and  _313
REMARK  128  A    between atoms: _316  and  _318
REMARK  129  A    between atoms: _318  and  _319
REMARK  130  A    between atoms: _318  and  _321
REMARK  131  A    between atoms: _321  and  _322
REMARK  132  A    between atoms: _325  and  _327
REMARK  133  A    between atoms: _327  and  _328
REMARK  134  A    between atoms: _327  and  _330
REMARK  135  A    between atoms: _333  and  _335
REMARK  136  A    between atoms: _335  and  _336
REMARK  137  A    between atoms: _335  and  _338
REMARK  138  A    between atoms: _338  and  _339
REMARK  139  A    between atoms: _339  and  _340
REMARK  140  A    between atoms: _340  and  _341
REMARK  141  A    between atoms: _341  and  _342
REMARK  142  A    between atoms: _346  and  _348
REMARK  143  A    between atoms: _348  and  _349
REMARK  144  A    between atoms: _348  and  _351
REMARK  145  A    between atoms: _351  and  _352
REMARK  146  A    between atoms: _352  and  _353
REMARK  147  A    between atoms: _355  and  _357
REMARK  148  A    between atoms: _357  and  _358
REMARK  149  A    between atoms: _357  and  _360
REMARK  150  A    between atoms: _360  and  _361
REMARK  151  A    between atoms: _364  and  _366
REMARK  152  A    between atoms: _366  and  _367
REMARK  153  A    between atoms: _369  and  _371
REMARK  154  A    between atoms: _371  and  _372
REMARK  155  A    between atoms: _374  and  _376
REMARK  156  A    between atoms: _376  and  _377
REMARK  157  A    between atoms: _376  and  _379
REMARK  158  A    between atoms: _379  and  _380
REMARK  159  A    between atoms: _383  and  _385
REMARK  160  A    between atoms: _385  and  _386
REMARK  161  A    between atoms: _388  and  _390
REMARK  162  A    between atoms: _390  and  _391
REMARK  163  A    between atoms: _393  and  _395
REMARK  164  A    between atoms: _395  and  _396
REMARK  165  A    between atoms: _395  and  _398
REMARK  166  A    between atoms: _398  and  _399
REMARK  167  A    between atoms: _405  and  _407
REMARK  168  A    between atoms: _407  and  _408
REMARK  169  A    between atoms: _407  and  _410
REMARK  170  A    between atoms: _410  and  _411
REMARK  171  A    between atoms: _414  and  _416
REMARK  172  A    between atoms: _416  and  _417
REMARK  173  A    between atoms: _416  and  _419
REMARK  174  A    between atoms: _419  and  _420
REMARK  175  A    between atoms: _424  and  _425
REMARK  176  A    between atoms: _430  and  _432
REMARK  177  A    between atoms: _432  and  _433
REMARK  178  A    between atoms: _432  and  _435
REMARK  179  A    between atoms: _435  and  _436
REMARK  180  A    between atoms: _440  and  _441
REMARK  181  A    between atoms: _446  and  _448
REMARK  182  A    between atoms: _448  and  _449
REMARK  183  A    between atoms: _448  and  _451
REMARK  184  A    between atoms: _454  and  _456
REMARK  185  A    between atoms: _456  and  _457
REMARK  186  A    between atoms: _456  and  _459
REMARK  187  A    between atoms: _459  and  _460
REMARK  188  A    between atoms: _465  and  _467
REMARK  189  A    between atoms: _467  and  _468
REMARK  190  A    between atoms: _467  and  _470
REMARK  191  A    between atoms: _470  and  _471
REMARK  192  A    between atoms: _474  and  _476
REMARK  193  A    between atoms: _476  and  _477
REMARK  194  A    between atoms: _476  and  _479
REMARK  195  A    between atoms: _479  and  _480
REMARK  196  A    between atoms: _483  and  _485
REMARK  197  A    between atoms: _485  and  _486
REMARK  198  A    between atoms: _488  and  _490
REMARK  199  A    between atoms: _490  and  _491
REMARK  200  A    between atoms: _490  and  _493
REMARK  201  A    between atoms: _493  and  _494
REMARK  202  A    between atoms: _494  and  _495
REMARK  203  A    between atoms: _495  and  _496
REMARK  204  A    between atoms: _505  and  _507
REMARK  205  A    between atoms: _507  and  _508
REMARK  206  A    between atoms: _507  and  _510
REMARK  207  A    between atoms: _510  and  _511
REMARK                            x       y       z     vdW  Elec       q    Type
REMARK                         _______ _______ _______ _____ _____    ______ ____
ROOT
ATOM      1  C   GLY A   5      21.441  35.650  11.350  0.00  0.00    +0.243 C 
ATOM      2  N   ILE A   6      21.892  34.441  11.047  0.00  0.00    -0.297 N 
ATOM      3  H   ILE A   6      21.583  33.625  11.613  0.00  0.00    +0.150 HD
ATOM      4  O   GLY A   5      21.819  36.671  10.769  0.00  0.00    -0.273 OA
ENDROOT
BRANCH   2   5
ATOM      5  CA  ILE A   6      22.811  34.233   9.938  0.00  0.00    +0.149 C 
BRANCH   5   6
ATOM      6  C   ILE A   6      22.098  34.645   8.637  0.00  0.00    +0.241 C 
ATOM      7  O   ILE A   6      20.952  34.247   8.388  0.00  0.00    -0.273 OA
ATOM      8  N   GLY A   7      22.765  35.481   7.842  0.00  0.00    -0.295 N 
ATOM      9  H   GLY A   7      23.710  35.805   8.130  0.00  0.00    +0.150 HD
BRANCH   8  10
ATOM     10  CA  GLY A   7      22.210  35.956   6.580  0.00  0.00    +0.176 C 
BRANCH  10  11
ATOM     11  C   GLY A   7      21.417  37.254   6.636  0.00  0.00    +0.243 C 
ATOM     12  N   GLY A   8      21.083  37.736   7.824  0.00  0.00    -0.295 N 
ATOM     13  H   GLY A   8      21.331  37.195   8.677  0.00  0.00    +0.150 HD
ATOM     14  O   GLY A   7      21.094  37.805   5.595  0.00  0.00    -0.273 OA
BRANCH  12  15
ATOM     15  CA  GLY A   8      20.379  39.001   7.967  0.00  0.00    +0.176 C 
BRANCH  15  16
ATOM     16  C   GLY A   8      19.078  38.840   8.718  0.00  0.00    +0.243 C 
ATOM     17  O   GLY A   8      18.949  37.968   9.576  0.00  0.00    -0.273 OA
ATOM     18  N   PHE A   9      18.109  39.678   8.379  0.00  0.00    -0.297 N 
ATOM     19  H   PHE A   9      18.214  40.259   7.523  0.00  0.00    +0.150 HD
BRANCH  18  20
ATOM     20  CA  PHE A   9      16.908  39.802   9.175  0.00  0.00    +0.153 C 
BRANCH  20  21
ATOM     21  C   PHE A   9      15.701  39.283   8.417  0.00  0.00    +0.241 C 
ATOM     22  N   ILE A  10      14.690  38.853   9.172  0.00  0.00    -0.298 N 
ATOM     23  H   ILE A  10      14.864  38.668  10.181  0.00  0.00    +0.150 HD
ATOM     24  O   PHE A   9      15.686  39.300   7.170  0.00  0.00    -0.273 OA
BRANCH  22  25
ATOM     25  CA  ILE A  10      13.337  38.629   8.635  0.00  0.00    +0.137 C 
BRANCH  25  26
ATOM     26  C   ILE A  10      12.309  39.449   9.406  0.00  0.00    +0.227 C 
ATOM     27  O   ILE A  10      12.535  39.818  10.569  0.00  0.00    -0.286 OA
ENDBRANCH  25  26
BRANCH  25  28
ATOM     28  CB  ILE A  10      12.923  37.146   8.631  0.00  0.00    +0.026 C 
ATOM     29  CG2 ILE A  10      13.808  36.381   7.661  0.00  0.00    +0.002 C 
BRANCH  28  30
ATOM     30  CG1 ILE A  10      12.975  36.525  10.034  0.00  0.00    +0.002 C 
ATOM     31  CD1 ILE A  10      12.143  35.253  10.161  0.00  0.00    +0.000 C 
ENDBRANCH  28  30
ENDBRANCH  25  28
ENDBRANCH  22  25
ENDBRANCH  20  21
BRANCH  20  32
ATOM     32  CB  PHE A   9      16.689  41.278   9.555  0.00  0.00    +0.055 C 
BRANCH  32  33
ATOM     33  CG  PHE A   9      17.563  41.751  10.688  0.00  0.00    -0.020 A 
ATOM     34  CD2 PHE A   9      17.048  41.916  11.960  0.00  0.00    -0.004 A 
ATOM     35  CE2 PHE A   9      17.861  42.346  12.997  0.00  0.00    -0.000 A 
ATOM     36  CZ  PHE A   9      19.198  42.606  12.768  0.00  0.00    -0.000 A 
ATOM     37  CE1 PHE A   9      19.720  42.436  11.509  0.00  0.00    -0.000 A 
ATOM     38  CD1 PHE A   9      18.913  42.012  10.483  0.00  0.00    -0.004 A 
ENDBRANCH  32  33
ENDBRANCH  20  32
ENDBRANCH  18  20
ENDBRANCH  15  16
ENDBRANCH  12  15
ENDBRANCH  10  11
ENDBRANCH   8  10
ENDBRANCH   5   6
BRANCH   5  39
ATOM     39  CB  ILE A   6      23.314  32.768   9.887  0.00  0.00    +0.027 C 
ATOM     40  CG2 ILE A   6      23.951  32.443   8.532  0.00  0.00    +0.002 C 
BRANCH  39  41
ATOM     41  CG1 ILE A   6      24.330  32.509  11.020  0.00  0.00    +0.002 C 
ATOM     42  CD1 ILE A   6      24.624  31.035  11.258  0.00  0.00    +0.000 C 
ENDBRANCH  39  41
ENDBRANCH   5  39
ENDBRANCH   2   5
BRANCH   1  43
ATOM     43  CA  GLY A   5      20.397  35.719  12.444  0.00  0.00    +0.176 C 
BRANCH  43  46
ATOM     44  C   GLY A   4      18.983  37.517  13.286  0.00  0.00    +0.243 C 
ATOM     45  O   GLY A   4      18.980  37.066  14.446  0.00  0.00    -0.273 OA
ATOM     46  N   GLY A   5      19.580  36.915  12.272  0.00  0.00    -0.295 N 
ATOM     47  H   GLY A   5      19.463  37.309  11.316  0.00  0.00    +0.150 HD
BRANCH  44  48
ATOM     48  CA  GLY A   4      18.292  38.821  12.935  0.00  0.00    +0.176 C 
BRANCH  48  50
ATOM     49  C   ILE A   3      15.873  39.082  13.104  0.00  0.00    +0.241 C 
ATOM     50  N   GLY A   4      17.067  39.013  13.679  0.00  0.00    -0.295 N 
ATOM     51  H   GLY A   4      17.124  39.101  14.714  0.00  0.00    +0.150 HD
ATOM     52  O   ILE A   3      15.648  38.825  11.919  0.00  0.00    -0.273 OA
BRANCH  49  53
ATOM     53  CA  ILE A   3      14.758  39.506  14.034  0.00  0.00    +0.149 C 
BRANCH  53  56
ATOM     54  C   MET A   2      13.371  41.485  13.772  0.00  0.00    +0.241 C 
ATOM     55  O   MET A   2      13.647  41.889  14.914  0.00  0.00    -0.273 OA
ATOM     56  N   ILE A   3      13.770  40.305  13.306  0.00  0.00    -0.297 N 
ATOM     57  H   ILE A   3      13.375  39.945  12.414  0.00  0.00    +0.150 HD
BRANCH  54  58
ATOM     58  CA  MET A   2      12.507  42.327  12.847  0.00  0.00    +0.149 C 
BRANCH  58  60
ATOM     59  C   LYS A   1      10.139  42.510  13.462  0.00  0.00    +0.238 C 
ATOM     60  N   MET A   2      11.409  42.873  13.632  0.00  0.00    -0.297 N 
ATOM     61  H   MET A   2      11.627  43.581  14.361  0.00  0.00    +0.150 HD
ATOM     62  O   LYS A   1       9.738  41.828  12.519  0.00  0.00    -0.274 OA
BRANCH  59  63
ATOM     63  CA  LYS A   1       9.167  43.023  14.525  0.00  0.00    +0.145 C 
BRANCH  63  64
ATOM     64  N   LYS A   1       7.836  43.061  13.955  0.00  0.00    -0.238 NA
ATOM     65  H   LYS A   1       7.591  42.374  13.214  0.00  0.00    +0.142 HD
ENDBRANCH  63  64
BRANCH  63  66
ATOM     66  CB  LYS A   1       9.138  42.083  15.731  0.00  0.00    +0.026 C 
BRANCH  66  67
ATOM     67  CG  LYS A   1      10.374  42.029  16.582  0.00  0.00    -0.000 C 
BRANCH  67  68
ATOM     68  CD  LYS A   1      10.129  41.061  17.747  0.00  0.00    -0.024 C 
BRANCH  68  69
ATOM     69  CE  LYS A   1      11.396  40.758  18.525  0.00  0.00    -0.086 C 
BRANCH  69  70
ATOM     70  NZ  LYS A   1      11.514  41.579  19.751  0.00  0.00    +0.380 N 
ATOM     71  HZ1 LYS A   1      10.702  41.391  20.372  0.00  0.00    -0.089 HD
ATOM     72  HZ2 LYS A   1      12.395  41.335  20.247  0.00  0.00    -0.089 HD
ATOM     73  HZ3 LYS A   1      11.528  42.586  19.492  0.00  0.00    -0.089 HD
ENDBRANCH  69  70
ENDBRANCH  68  69
ENDBRANCH  67  68
ENDBRANCH  66  67
ENDBRANCH  63  66
ENDBRANCH  59  63
ENDBRANCH  58  60
BRANCH  58  74
ATOM     74  CB  MET A   2      13.349  43.454  12.251  0.00  0.00    +0.041 C 
BRANCH  74  75
ATOM     75  CG  MET A   2      12.612  44.284  11.227  0.00  0.00    +0.060 C 
BRANCH  75  76
ATOM     76  SD  MET A   2      12.426  43.388   9.686  0.00  0.00    -0.139 S 
ATOM     77  CE  MET A   2      13.961  43.825   8.876  0.00  0.00    +0.069 C 
ENDBRANCH  75  76
ENDBRANCH  74  75
ENDBRANCH  58  74
ENDBRANCH  54  58
ENDBRANCH  53  56
BRANCH  53  78
ATOM     78  CB  ILE A   3      14.149  38.282  14.732  0.00  0.00    +0.027 C 
ATOM     79  CG2 ILE A   3      13.189  38.751  15.819  0.00  0.00    +0.002 C 
BRANCH  78  80
ATOM     80  CG1 ILE A   3      13.451  37.353  13.735  0.00  0.00    +0.002 C 
ATOM     81  CD1 ILE A   3      13.009  36.036  14.347  0.00  0.00    +0.000 C 
ENDBRANCH  78  80
ENDBRANCH  53  78
ENDBRANCH  49  53
ENDBRANCH  48  50
ENDBRANCH  44  48
ENDBRANCH  43  46
ENDBRANCH   1  43
TORSDOF 36
REMARK  Name = ../refined-set-2016/3gi4/3gi4_pocket.pdb
REMARK  207 active torsions:
REMARK  status: ('A' for Active; 'I' for Inactive)
REMARK    1  A    between atoms: _1  and  _3
REMARK    2  A    between atoms: _3  and  _4
REMARK    3  A    between atoms: _3  and  _6
REMARK    4  A    between atoms: _6  and  _7
REMARK    5  A    between atoms: _7  and  _8
REMARK    6  A    between atoms: _8  and  _9
REMARK    7  A    between atoms: _18  and  _20
REMARK    8  A    between atoms: _20  and  _21
REMARK    9  A    between atoms: _20  and  _23
REMARK   10  A    between atoms: _23  and  _24
REMARK   11  A    between atoms: _27  and  _29
REMARK   12  A    between atoms: _29  and  _30
REMARK   13  A    between atoms: _29  and  _32
REMARK   14  A    between atoms: _32  and  _33
REMARK   15  A    between atoms: _36  and  _38
REMARK   16  A    between atoms: _38  and  _39
REMARK   17  A    between atoms: _38  and  _41
REMARK   18  A    between atoms: _41  and  _42
REMARK   19  A    between atoms: _45  and  _47
REMARK   20  A    between atoms: _47  and  _48
REMARK   21  A    between atoms: _47  and  _50
REMARK   22  A    between atoms: _50  and  _51
REMARK   23  A    between atoms: _54  and  _56
REMARK   24  A    between atoms: _56  and  _57
REMARK   25  A    between atoms: _59  and  _61
REMARK   26  A    between atoms: _61  and  _62
REMARK   27  A    between atoms: _65  and  _67
REMARK   28  A    between atoms: _67  and  _68
REMARK   29  A    between atoms: _67  and  _70
REMARK   30  A    between atoms: _70  and  _71
REMARK   31  A    between atoms: _74  and  _76
REMARK   32  A    between atoms: _76  and  _77
REMARK   33  A    between atoms: _76  and  _79
REMARK   34  A    between atoms: _79  and  _80
REMARK   35  A    between atoms: _83  and  _85
REMARK   36  A    between atoms: _85  and  _86
REMARK   37  A    between atoms: _85  and  _88
REMARK   38  A    between atoms: _88  and  _89
REMARK   39  A    between atoms: _92  and  _94
REMARK   40  A    between atoms: _94  and  _95
REMARK   41  A    between atoms: _94  and  _97
REMARK   42  A    between atoms: _100  and  _102
REMARK   43  A    between atoms: _102  and  _103
REMARK   44  A    between atoms: _102  and  _105
REMARK   45  A    between atoms: _105  and  _106
REMARK   46  A    between atoms: _109  and  _111
REMARK   47  A    between atoms: _111  and  _112
REMARK   48  A    between atoms: _114  and  _116
REMARK   49  A    between atoms: _116  and  _117
REMARK   50  A    between atoms: _119  and  _121
REMARK   51  A    between atoms: _121  and  _122
REMARK   52  A    between atoms: _121  and  _124
REMARK   53  A    between atoms: _124  and  _125
REMARK   54  A    between atoms: _128  and  _130
REMARK   55  A    between atoms: _130  and  _131
REMARK   56  A    between atoms: _133  and  _135
REMARK   57  A    between atoms: _135  and  _136
REMARK   58  A    between atoms: _138  and  _140
REMARK   59  A    between atoms: _140  and  _141
REMARK   60  A    between atoms: _140  and  _143
REMARK   61  A    between atoms: _143  and  _144
REMARK   62  A    between atoms: _150  and  _152
REMARK   63  A    between atoms: _152  and  _153
REMARK   64  A    between atoms: _152  and  _155
REMARK   65  A    between atoms: _155  and  _156
REMARK   66  A    between atoms: _159  and  _161
REMARK   67  A    between atoms: _161  and  _162
REMARK   68  A    between atoms: _161  and  _164
REMARK   69  A    between atoms: _164  and  _165
REMARK   70  A    between atoms: _169  and  _170
REMARK   71  A    between atoms: _175  and  _177
REMARK   72  A    between atoms: _177  and  _178
REMARK   73  A    between atoms: _177  and  _180
REMARK   74  A    between atoms: _183  and  _185
REMARK   75  A    between atoms: _185  and  _186
REMARK   76  A    between atoms: _185  and  _188
REMARK   77  A    between atoms: _188  and  _189
REMARK   78  A    between atoms: _194  and  _196
REMARK   79  A    between atoms: _196  and  _197
REMARK   80  A    between atoms: _196  and  _199
REMARK   81  A    between atoms: _199  and  _200
REMARK   82  A    between atoms: _203  and  _205
REMARK   83  A    between atoms: _205  and  _206
REMARK   84  A    between atoms: _205  and  _208
REMARK   85  A    between atoms: _208  and  _209
REMARK   86  A    between atoms: _212  and  _214
REMARK   87  A    between atoms: _214  and  _215
REMARK   88  A    between atoms: _217  and  _219
REMARK   89  A    between atoms: _219  and  _220
REMARK   90  A    between atoms: _219  and  _222
REMARK   91  A    between atoms: _222  and  _223
REMARK   92  A    between atoms: _223  and  _224
REMARK   93  A    between atoms: _224  and  _225
REMARK   94  A    between atoms: _234  and  _236
REMARK   95  A    between atoms: _236  and  _237
REMARK   96  A    between atoms: _236  and  _239
REMARK   97  A    between atoms: _239  and  _240
REMARK   98  A    between atoms: _240  and  _241
REMARK   99  A    between atoms: _241  and  _242
REMARK  100  A    between atoms: _251  and  _253
REMARK  101  A    between atoms: _253  and  _254
REMARK  102  A    between atoms: _253  and  _256
REMARK  103  A    between atoms: _256  and  _257
REMARK  104  A    between atoms: _260  and  _262
REMARK  105  A    between atoms: _262  and  _263
REMARK  106  A    between atoms: _262  and  _265
REMARK  107  A    between atoms: _265  and  _266
REMARK  108  A    between atoms: _269  and  _271
REMARK  109  A    between atoms: _271  and  _272
REMARK  110  A    between atoms: _271  and  _274
REMARK  111  A    between atoms: _274  and  _275
REMARK  112  A    between atoms: _278  and  _280
REMARK  113  A    between atoms: _280  and  _281
REMARK  114  A    between atoms: _280  and  _283
REMARK  115  A    between atoms: _283  and  _284
REMARK  116  A    between atoms: _287  and  _289
REMARK  117  A    between atoms: _289  and  _290
REMARK  118  A    between atoms: _292  and  _294
REMARK  119  A    between atoms: _294  and  _295
REMARK  120  A    between atoms: _298  and  _300
REMARK  121  A    between atoms: _300  and  _301
REMARK  122  A    between atoms: _300  and  _303
REMARK  123  A    between atoms: _303  and  _304
REMARK  124  A    between atoms: _307  and  _309
REMARK  125  A    between atoms: _309  and  _310
REMARK  126  A    between atoms: _309  and  _312
REMARK  127  A    between atoms: _312  and  _313
REMARK  128  A    between atoms: _316  and  _318
REMARK  129  A    between atoms: _318  and  _319
REMARK  130  A    between atoms: _318  and  _321
REMARK  131  A    between atoms: _321  and  _322
REMARK  132  A    between atoms: _325  and  _327
REMARK  133  A    between atoms: _327  and  _328
REMARK  134  A    between atoms: _327  and  _330
REMARK  135  A    between atoms: _333  and  _335
REMARK  136  A    between atoms: _335  and  _336
REMARK  137  A    between atoms: _335  and  _338
REMARK  138  A    between atoms: _338  and  _339
REMARK  139  A    between atoms: _339  and  _340
REMARK  140  A    between atoms: _340  and  _341
REMARK  141  A    between atoms: _341  and  _342
REMARK  142  A    between atoms: _346  and  _348
REMARK  143  A    between atoms: _348  and  _349
REMARK  144  A    between atoms: _348  and  _351
REMARK  145  A    between atoms: _351  and  _352
REMARK  146  A    between atoms: _352  and  _353
REMARK  147  A    between atoms: _355  and  _357
REMARK  148  A    between atoms: _357  and  _358
REMARK  149  A    between atoms: _357  and  _360
REMARK  150  A    between atoms: _360  and  _361
REMARK  151  A    between atoms: _364  and  _366
REMARK  152  A    between atoms: _366  and  _367
REMARK  153  A    between atoms: _369  and  _371
REMARK  154  A    between atoms: _371  and  _372
REMARK  155  A    between atoms: _374  and  _376
REMARK  156  A    between atoms: _376  and  _377
REMARK  157  A    between atoms: _376  and  _379
REMARK  158  A    between atoms: _379  and  _380
REMARK  159  A    between atoms: _383  and  _385
REMARK  160  A    between atoms: _385  and  _386
REMARK  161  A    between atoms: _388  and  _390
REMARK  162  A    between atoms: _390  and  _391
REMARK  163  A    between atoms: _393  and  _395
REMARK  164  A    between atoms: _395  and  _396
REMARK  165  A    between atoms: _395  and  _398
REMARK  166  A    between atoms: _398  and  _399
REMARK  167  A    between atoms: _405  and  _407
REMARK  168  A    between atoms: _407  and  _408
REMARK  169  A    between atoms: _407  and  _410
REMARK  170  A    between atoms: _410  and  _411
REMARK  171  A    between atoms: _414  and  _416
REMARK  172  A    between atoms: _416  and  _417
REMARK  173  A    between atoms: _416  and  _419
REMARK  174  A    between atoms: _419  and  _420
REMARK  175  A    between atoms: _424  and  _425
REMARK  176  A    between atoms: _430  and  _432
REMARK  177  A    between atoms: _432  and  _433
REMARK  178  A    between atoms: _432  and  _435
REMARK  179  A    between atoms: _435  and  _436
REMARK  180  A    between atoms: _440  and  _441
REMARK  181  A    between atoms: _446  and  _448
REMARK  182  A    between atoms: _448  and  _449
REMARK  183  A    between atoms: _448  and  _451
REMARK  184  A    between atoms: _454  and  _456
REMARK  185  A    between atoms: _456  and  _457
REMARK  186  A    between atoms: _456  and  _459
REMARK  187  A    between atoms: _459  and  _460
REMARK  188  A    between atoms: _465  and  _467
REMARK  189  A    between atoms: _467  and  _468
REMARK  190  A    between atoms: _467  and  _470
REMARK  191  A    between atoms: _470  and  _471
REMARK  192  A    between atoms: _474  and  _476
REMARK  193  A    between atoms: _476  and  _477
REMARK  194  A    between atoms: _476  and  _479
REMARK  195  A    between atoms: _479  and  _480
REMARK  196  A    between atoms: _483  and  _485
REMARK  197  A    between atoms: _485  and  _486
REMARK  198  A    between atoms: _488  and  _490
REMARK  199  A    between atoms: _490  and  _491
REMARK  200  A    between atoms: _490  and  _493
REMARK  201  A    between atoms: _493  and  _494
REMARK  202  A    between atoms: _494  and  _495
REMARK  203  A    between atoms: _495  and  _496
REMARK  204  A    between atoms: _505  and  _507
REMARK  205  A    between atoms: _507  and  _508
REMARK  206  A    between atoms: _507  and  _510
REMARK  207  A    between atoms: _510  and  _511
REMARK                            x       y       z     vdW  Elec       q    Type
REMARK                         _______ _______ _______ _____ _____    ______ ____
ROOT
ATOM      1  CA  LEU A   1       6.938  35.312  16.472  0.00  0.00    +0.133 C 
ENDROOT
BRANCH   1   2
ATOM      2  N   LEU A   1       6.645  34.504  17.651  0.00  0.00    -0.239 NA
ATOM      3  H   LEU A   1       7.352  33.805  17.957  0.00  0.00    +0.142 HD
ENDBRANCH   1   2
BRANCH   1   4
ATOM      4  C   LEU A   1       6.658  34.485  15.239  0.00  0.00    +0.224 C 
ATOM      5  O   LEU A   1       7.206  33.386  15.085  0.00  0.00    -0.287 OA
ENDBRANCH   1   4
BRANCH   1   6
ATOM      6  CB  LEU A   1       8.411  35.735  16.465  0.00  0.00    +0.025 C 
BRANCH   6   7
ATOM      7  CG  LEU A   1       8.908  36.414  17.750  0.00  0.00    +0.002 C 
ATOM      8  CD2 LEU A   1       8.033  37.578  18.105  0.00  0.00    +0.000 C 
ATOM      9  CD1 LEU A   1      10.374  36.839  17.607  0.00  0.00    +0.000 C 
ENDBRANCH   6   7
ENDBRANCH   1   6
TORSDOF 4
REMARK  Name = ../refined-set-2016/3gi4/3gi4_pocket.pdb
REMARK  207 active torsions:
REMARK  status: ('A' for Active; 'I' for Inactive)
REMARK    1  A    between atoms: _1  and  _3
REMARK    2  A    between atoms: _3  and  _4
REMARK    3  A    between atoms: _3  and  _6
REMARK    4  A    between atoms: _6  and  _7
REMARK    5  A    between atoms: _7  and  _8
REMARK    6  A    between atoms: _8  and  _9
REMARK    7  A    between atoms: _18  and  _20
REMARK    8  A    between atoms: _20  and  _21
REMARK    9  A    between atoms: _20  and  _23
REMARK   10  A    between atoms: _23  and  _24
REMARK   11  A    between atoms: _27  and  _29
REMARK   12  A    between atoms: _29  and  _30
REMARK   13  A    between atoms: _29  and  _32
REMARK   14  A    between atoms: _32  and  _33
REMARK   15  A    between atoms: _36  and  _38
REMARK   16  A    between atoms: _38  and  _39
REMARK   17  A    between atoms: _38  and  _41
REMARK   18  A    between atoms: _41  and  _42
REMARK   19  A    between atoms: _45  and  _47
REMARK   20  A    between atoms: _47  and  _48
REMARK   21  A    between atoms: _47  and  _50
REMARK   22  A    between atoms: _50  and  _51
REMARK   23  A    between atoms: _54  and  _56
REMARK   24  A    between atoms: _56  and  _57
REMARK   25  A    between atoms: _59  and  _61
REMARK   26  A    between atoms: _61  and  _62
REMARK   27  A    between atoms: _65  and  _67
REMARK   28  A    between atoms: _67  and  _68
REMARK   29  A    between atoms: _67  and  _70
REMARK   30  A    between atoms: _70  and  _71
REMARK   31  A    between atoms: _74  and  _76
REMARK   32  A    between atoms: _76  and  _77
REMARK   33  A    between atoms: _76  and  _79
REMARK   34  A    between atoms: _79  and  _80
REMARK   35  A    between atoms: _83  and  _85
REMARK   36  A    between atoms: _85  and  _86
REMARK   37  A    between atoms: _85  and  _88
REMARK   38  A    between atoms: _88  and  _89
REMARK   39  A    between atoms: _92  and  _94
REMARK   40  A    between atoms: _94  and  _95
REMARK   41  A    between atoms: _94  and  _97
REMARK   42  A    between atoms: _100  and  _102
REMARK   43  A    between atoms: _102  and  _103
REMARK   44  A    between atoms: _102  and  _105
REMARK   45  A    between atoms: _105  and  _106
REMARK   46  A    between atoms: _109  and  _111
REMARK   47  A    between atoms: _111  and  _112
REMARK   48  A    between atoms: _114  and  _116
REMARK   49  A    between atoms: _116  and  _117
REMARK   50  A    between atoms: _119  and  _121
REMARK   51  A    between atoms: _121  and  _122
REMARK   52  A    between atoms: _121  and  _124
REMARK   53  A    between atoms: _124  and  _125
REMARK   54  A    between atoms: _128  and  _130
REMARK   55  A    between atoms: _130  and  _131
REMARK   56  A    between atoms: _133  and  _135
REMARK   57  A    between atoms: _135  and  _136
REMARK   58  A    between atoms: _138  and  _140
REMARK   59  A    between atoms: _140  and  _141
REMARK   60  A    between atoms: _140  and  _143
REMARK   61  A    between atoms: _143  and  _144
REMARK   62  A    between atoms: _150  and  _152
REMARK   63  A    between atoms: _152  and  _153
REMARK   64  A    between atoms: _152  and  _155
REMARK   65  A    between atoms: _155  and  _156
REMARK   66  A    between atoms: _159  and  _161
REMARK   67  A    between atoms: _161  and  _162
REMARK   68  A    between atoms: _161  and  _164
REMARK   69  A    between atoms: _164  and  _165
REMARK   70  A    between atoms: _169  and  _170
REMARK   71  A    between atoms: _175  and  _177
REMARK   72  A    between atoms: _177  and  _178
REMARK   73  A    between atoms: _177  and  _180
REMARK   74  A    between atoms: _183  and  _185
REMARK   75  A    between atoms: _185  and  _186
REMARK   76  A    between atoms: _185  and  _188
REMARK   77  A    between atoms: _188  and  _189
REMARK   78  A    between atoms: _194  and  _196
REMARK   79  A    between atoms: _196  and  _197
REMARK   80  A    between atoms: _196  and  _199
REMARK   81  A    between atoms: _199  and  _200
REMARK   82  A    between atoms: _203  and  _205
REMARK   83  A    between atoms: _205  and  _206
REMARK   84  A    between atoms: _205  and  _208
REMARK   85  A    between atoms: _208  and  _209
REMARK   86  A    between atoms: _212  and  _214
REMARK   87  A    between atoms: _214  and  _215
REMARK   88  A    between atoms: _217  and  _219
REMARK   89  A    between atoms: _219  and  _220
REMARK   90  A    between atoms: _219  and  _222
REMARK   91  A    between atoms: _222  and  _223
REMARK   92  A    between atoms: _223  and  _224
REMARK   93  A    between atoms: _224  and  _225
REMARK   94  A    between atoms: _234  and  _236
REMARK   95  A    between atoms: _236  and  _237
REMARK   96  A    between atoms: _236  and  _239
REMARK   97  A    between atoms: _239  and  _240
REMARK   98  A    between atoms: _240  and  _241
REMARK   99  A    between atoms: _241  and  _242
REMARK  100  A    between atoms: _251  and  _253
REMARK  101  A    between atoms: _253  and  _254
REMARK  102  A    between atoms: _253  and  _256
REMARK  103  A    between atoms: _256  and  _257
REMARK  104  A    between atoms: _260  and  _262
REMARK  105  A    between atoms: _262  and  _263
REMARK  106  A    between atoms: _262  and  _265
REMARK  107  A    between atoms: _265  and  _266
REMARK  108  A    between atoms: _269  and  _271
REMARK  109  A    between atoms: _271  and  _272
REMARK  110  A    between atoms: _271  and  _274
REMARK  111  A    between atoms: _274  and  _275
REMARK  112  A    between atoms: _278  and  _280
REMARK  113  A    between atoms: _280  and  _281
REMARK  114  A    between atoms: _280  and  _283
REMARK  115  A    between atoms: _283  and  _284
REMARK  116  A    between atoms: _287  and  _289
REMARK  117  A    between atoms: _289  and  _290
REMARK  118  A    between atoms: _292  and  _294
REMARK  119  A    between atoms: _294  and  _295
REMARK  120  A    between atoms: _298  and  _300
REMARK  121  A    between atoms: _300  and  _301
REMARK  122  A    between atoms: _300  and  _303
REMARK  123  A    between atoms: _303  and  _304
REMARK  124  A    between atoms: _307  and  _309
REMARK  125  A    between atoms: _309  and  _310
REMARK  126  A    between atoms: _309  and  _312
REMARK  127  A    between atoms: _312  and  _313
REMARK  128  A    between atoms: _316  and  _318
REMARK  129  A    between atoms: _318  and  _319
REMARK  130  A    between atoms: _318  and  _321
REMARK  131  A    between atoms: _321  and  _322
REMARK  132  A    between atoms: _325  and  _327
REMARK  133  A    between atoms: _327  and  _328
REMARK  134  A    between atoms: _327  and  _330
REMARK  135  A    between atoms: _333  and  _335
REMARK  136  A    between atoms: _335  and  _336
REMARK  137  A    between atoms: _335  and  _338
REMARK  138  A    between atoms: _338  and  _339
REMARK  139  A    between atoms: _339  and  _340
REMARK  140  A    between atoms: _340  and  _341
REMARK  141  A    between atoms: _341  and  _342
REMARK  142  A    between atoms: _346  and  _348
REMARK  143  A    between atoms: _348  and  _349
REMARK  144  A    between atoms: _348  and  _351
REMARK  145  A    between atoms: _351  and  _352
REMARK  146  A    between atoms: _352  and  _353
REMARK  147  A    between atoms: _355  and  _357
REMARK  148  A    between atoms: _357  and  _358
REMARK  149  A    between atoms: _357  and  _360
REMARK  150  A    between atoms: _360  and  _361
REMARK  151  A    between atoms: _364  and  _366
REMARK  152  A    between atoms: _366  and  _367
REMARK  153  A    between atoms: _369  and  _371
REMARK  154  A    between atoms: _371  and  _372
REMARK  155  A    between atoms: _374  and  _376
REMARK  156  A    between atoms: _376  and  _377
REMARK  157  A    between atoms: _376  and  _379
REMARK  158  A    between atoms: _379  and  _380
REMARK  159  A    between atoms: _383  and  _385
REMARK  160  A    between atoms: _385  and  _386
REMARK  161  A    between atoms: _388  and  _390
REMARK  162  A    between atoms: _390  and  _391
REMARK  163  A    between atoms: _393  and  _395
REMARK  164  A    between atoms: _395  and  _396
REMARK  165  A    between atoms: _395  and  _398
REMARK  166  A    between atoms: _398  and  _399
REMARK  167  A    between atoms: _405  and  _407
REMARK  168  A    between atoms: _407  and  _408
REMARK  169  A    between atoms: _407  and  _410
REMARK  170  A    between atoms: _410  and  _411
REMARK  171  A    between atoms: _414  and  _416
REMARK  172  A    between atoms: _416  and  _417
REMARK  173  A    between atoms: _416  and  _419
REMARK  174  A    between atoms: _419  and  _420
REMARK  175  A    between atoms: _424  and  _425
REMARK  176  A    between atoms: _430  and  _432
REMARK  177  A    between atoms: _432  and  _433
REMARK  178  A    between atoms: _432  and  _435
REMARK  179  A    between atoms: _435  and  _436
REMARK  180  A    between atoms: _440  and  _441
REMARK  181  A    between atoms: _446  and  _448
REMARK  182  A    between atoms: _448  and  _449
REMARK  183  A    between atoms: _448  and  _451
REMARK  184  A    between atoms: _454  and  _456
REMARK  185  A    between atoms: _456  and  _457
REMARK  186  A    between atoms: _456  and  _459
REMARK  187  A    between atoms: _459  and  _460
REMARK  188  A    between atoms: _465  and  _467
REMARK  189  A    between atoms: _467  and  _468
REMARK  190  A    between atoms: _467  and  _470
REMARK  191  A    between atoms: _470  and  _471
REMARK  192  A    between atoms: _474  and  _476
REMARK  193  A    between atoms: _476  and  _477
REMARK  194  A    between atoms: _476  and  _479
REMARK  195  A    between atoms: _479  and  _480
REMARK  196  A    between atoms: _483  and  _485
REMARK  197  A    between atoms: _485  and  _486
REMARK  198  A    between atoms: _488  and  _490
REMARK  199  A    between atoms: _490  and  _491
REMARK  200  A    between atoms: _490  and  _493
REMARK  201  A    between atoms: _493  and  _494
REMARK  202  A    between atoms: _494  and  _495
REMARK  203  A    between atoms: _495  and  _496
REMARK  204  A    between atoms: _505  and  _507
REMARK  205  A    between atoms: _507  and  _508
REMARK  206  A    between atoms: _507  and  _510
REMARK  207  A    between atoms: _510  and  _511
REMARK                            x       y       z     vdW  Elec       q    Type
REMARK                         _______ _______ _______ _____ _____    ______ ____
ROOT
ATOM      1  CA  ILE A   6      12.034  27.354  16.537  0.00  0.00    +0.149 C 
ENDROOT
BRANCH   1   3
ATOM      2  C   ASN A   5      10.860  26.097  14.789  0.00  0.00    +0.241 C 
ATOM      3  N   ILE A   6      10.974  27.186  15.550  0.00  0.00    -0.297 N 
ATOM      4  H   ILE A   6      10.276  27.949  15.435  0.00  0.00    +0.150 HD
ATOM      5  O   ASN A   5      11.560  25.089  14.926  0.00  0.00    -0.273 OA
BRANCH   2   6
ATOM      6  CA  ASN A   5       9.807  26.158  13.688  0.00  0.00    +0.158 C 
BRANCH   6   8
ATOM      7  C   VAL A   4      11.294  26.434  11.797  0.00  0.00    +0.241 C 
ATOM      8  N   ASN A   5      10.434  25.673  12.466  0.00  0.00    -0.297 N 
ATOM      9  H   ASN A   5      10.206  24.721  12.113  0.00  0.00    +0.150 HD
ATOM     10  O   VAL A   4      11.528  27.615  12.107  0.00  0.00    -0.273 OA
BRANCH   7  11
ATOM     11  CA  VAL A   4      11.973  25.788  10.608  0.00  0.00    +0.149 C 
BRANCH  11  13
ATOM     12  C   PRO A   3      11.933  26.424   8.252  0.00  0.00    +0.241 C 
ATOM     13  N   VAL A   4      12.142  26.746   9.524  0.00  0.00    -0.297 N 
ATOM     14  H   VAL A   4      12.437  27.717   9.754  0.00  0.00    +0.150 HD
ATOM     15  O   PRO A   3      11.506  25.328   7.890  0.00  0.00    -0.273 OA
BRANCH  12  22
ATOM     16  C   THR A   2      11.235  29.490   8.145  0.00  0.00    +0.246 C 
ATOM     17  O   THR A   2      10.114  29.010   7.987  0.00  0.00    -0.273 OA
ATOM     18  N   PRO A   3      12.355  28.842   7.771  0.00  0.00    -0.272 N 
ATOM     19  CD  PRO A   3      13.744  29.334   7.825  0.00  0.00    +0.094 C 
ATOM     20  CG  PRO A   3      14.559  28.108   7.510  0.00  0.00    +0.024 C 
ATOM     21  CB  PRO A   3      13.697  27.230   6.698  0.00  0.00    +0.031 C 
ATOM     22  CA  PRO A   3      12.278  27.483   7.219  0.00  0.00    +0.152 C 
BRANCH  16  23
ATOM     23  CA  THR A   2      11.391  30.867   8.799  0.00  0.00    +0.176 C 
BRANCH  23  25
ATOM     24  C   PRO A   1      10.400  32.604   7.370  0.00  0.00    +0.239 C 
ATOM     25  N   THR A   2      10.298  31.735   8.375  0.00  0.00    -0.295 N 
ATOM     26  H   THR A   2       9.393  31.672   8.883  0.00  0.00    +0.150 HD
ATOM     27  O   PRO A   1      11.462  32.865   6.791  0.00  0.00    -0.274 OA
BRANCH  24  32
ATOM     28  N   PRO A   1       8.539  34.166   7.962  0.00  0.00    -0.210 NA
ATOM     29  CD  PRO A   1       8.829  35.578   7.655  0.00  0.00    +0.089 C 
ATOM     30  CG  PRO A   1       9.610  35.514   6.348  0.00  0.00    +0.021 C 
ATOM     31  CB  PRO A   1       9.246  34.201   5.739  0.00  0.00    +0.028 C 
ATOM     32  CA  PRO A   1       9.079  33.271   6.946  0.00  0.00    +0.149 C 
ENDBRANCH  24  32
ENDBRANCH  23  25
BRANCH  23  33
ATOM     33  CB  THR A   2      11.434  30.698  10.351  0.00  0.00    +0.137 C 
ATOM     34  CG2 THR A   2      10.092  30.214  10.917  0.00  0.00    +0.034 C 
BRANCH  33  35
ATOM     35  OG1 THR A   2      12.456  29.761  10.706  0.00  0.00    -0.382 OA
ATOM     36  HG1 THR A   2      12.479  29.657  11.690  0.00  0.00    +0.210 HD
ENDBRANCH  33  35
ENDBRANCH  23  33
ENDBRANCH  16  23
ENDBRANCH  12  22
ENDBRANCH  11  13
BRANCH  11  37
ATOM     37  CB  VAL A   4      13.334  25.183  11.029  0.00  0.00    +0.027 C 
ATOM     38  CG2 VAL A   4      14.294  26.263  11.516  0.00  0.00    +0.002 C 
ATOM     39  CG1 VAL A   4      13.943  24.414   9.872  0.00  0.00    +0.002 C 
ENDBRANCH  11  37
ENDBRANCH   7  11
ENDBRANCH   6   8
BRANCH   6  40
ATOM     40  CB  ASN A   5       8.588  25.312  14.068  0.00  0.00    +0.114 C 
BRANCH  40  41
ATOM     41  CG  ASN A   5       7.461  25.419  13.056  0.00  0.00    +0.222 C 
ATOM     42  OD1 ASN A   5       6.963  26.506  12.786  0.00  0.00    -0.275 OA
ATOM     43  ND2 ASN A   5       7.041  24.282  12.510  0.00  0.00    -0.329 N 
ATOM     44 HD21 ASN A   5       7.494  23.382  12.769  0.00  0.00    +0.145 HD
ATOM     45 HD22 ASN A   5       6.260  24.292  11.824  0.00  0.00    +0.145 HD
ENDBRANCH  40  41
ENDBRANCH   6  40
ENDBRANCH   2   6
ENDBRANCH   1   3
BRANCH   1  46
ATOM     46  C   ILE A   6      11.413  27.632  17.904  0.00  0.00    +0.241 C 
ATOM     47  N   ILE A   7      11.619  26.717  18.847  0.00  0.00    -0.297 N 
ATOM     48  H   ILE A   7      12.059  25.810  18.591  0.00  0.00    +0.150 HD
ATOM     49  O   ILE A   6      10.756  28.655  18.092  0.00  0.00    -0.273 OA
BRANCH  47  50
ATOM     50  CA  ILE A   7      11.242  26.960  20.225  0.00  0.00    +0.149 C 
BRANCH  50  51
ATOM     51  C   ILE A   7      12.416  27.597  20.940  0.00  0.00    +0.241 C 
ATOM     52  N   GLY A   8      12.224  28.859  21.320  0.00  0.00    -0.295 N 
ATOM     53  H   GLY A   8      11.294  29.297  21.163  0.00  0.00    +0.150 HD
ATOM     54  O   ILE A   7      13.473  26.967  21.133  0.00  0.00    -0.273 OA
BRANCH  52  55
ATOM     55  CA  GLY A   8      13.272  29.640  21.946  0.00  0.00    +0.176 C 
BRANCH  55  56
ATOM     56  C   GLY A   8      13.185  29.620  23.453  0.00  0.00    +0.243 C 
ATOM     57  N   ARG A   9      14.142  30.304  24.075  0.00  0.00    -0.297 N 
ATOM     58  H   ARG A   9      14.793  30.886  23.510  0.00  0.00    +0.150 HD
ATOM     59  O   GLY A   8      12.257  29.026  24.043  0.00  0.00    -0.273 OA
BRANCH  57  60
ATOM     60  CA  ARG A   9      14.307  30.263  25.522  0.00  0.00    +0.149 C 
BRANCH  60  61
ATOM     61  C   ARG A   9      13.090  30.737  26.307  0.00  0.00    +0.241 C 
ATOM     62  O   ARG A   9      12.857  30.236  27.404  0.00  0.00    -0.273 OA
ATOM     63  N   ASN A  10      12.309  31.679  25.760  0.00  0.00    -0.298 N 
ATOM     64  H   ASN A  10      12.560  32.089  24.838  0.00  0.00    +0.150 HD
BRANCH  63  65
ATOM     65  CA  ASN A  10      11.102  32.134  26.457  0.00  0.00    +0.146 C 
BRANCH  65  66
ATOM     66  C   ASN A  10      10.149  30.984  26.804  0.00  0.00    +0.227 C 
ATOM     67  O   ASN A  10       9.459  31.057  27.799  0.00  0.00    -0.286 OA
ENDBRANCH  65  66
BRANCH  65  68
ATOM     68  CB  ASN A  10      10.354  33.220  25.664  0.00  0.00    +0.112 C 
BRANCH  68  69
ATOM     69  CG  ASN A  10       9.719  32.687  24.394  0.00  0.00    +0.222 C 
ATOM     70  ND2 ASN A  10       8.410  32.893  24.251  0.00  0.00    -0.329 N 
ATOM     71 HD21 ASN A  10       7.878  33.392  24.992  0.00  0.00    +0.145 HD
ATOM     72 HD22 ASN A  10       7.920  32.554  23.398  0.00  0.00    +0.145 HD
ATOM     73  OD1 ASN A  10      10.396  32.102  23.548  0.00  0.00    -0.275 OA
ENDBRANCH  68  69
ENDBRANCH  65  68
ENDBRANCH  63  65
ENDBRANCH  60  61
BRANCH  60  74
ATOM     74  CB  ARG A   9      15.541  31.049  25.955  0.00  0.00    +0.033 C 
BRANCH  74  75
ATOM     75  CG  ARG A   9      16.859  30.409  25.520  0.00  0.00    +0.045 C 
BRANCH  75  76
ATOM     76  CD  ARG A   9      18.075  31.166  26.072  0.00  0.00    +0.174 C 
BRANCH  76  77
ATOM     77  NE  ARG A   9      18.127  32.567  25.648  0.00  0.00    -0.265 N 
ATOM     78  CZ  ARG A   9      17.729  33.621  26.366  0.00  0.00    +0.342 C 
ATOM     79  NH2 ARG A   9      17.209  33.491  27.578  0.00  0.00    -0.292 N 
ATOM     80 HH21 ARG A   9      16.910  34.334  28.109  0.00  0.00    +0.255 HD
ATOM     81 HH22 ARG A   9      17.100  32.546  27.999  0.00  0.00    +0.255 HD
ATOM     82  NH1 ARG A   9      17.839  34.838  25.849  0.00  0.00    -0.292 N 
ATOM     83 HH11 ARG A   9      17.532  35.666  26.398  0.00  0.00    +0.255 HD
ATOM     84 HH12 ARG A   9      18.232  34.964  24.894  0.00  0.00    +0.255 HD
ATOM     85  HE  ARG A   9      18.509  32.759  24.700  0.00  0.00    +0.259 HD
ENDBRANCH  76  77
ENDBRANCH  75  76
ENDBRANCH  74  75
ENDBRANCH  60  74
ENDBRANCH  57  60
ENDBRANCH  55  56
ENDBRANCH  52  55
ENDBRANCH  50  51
BRANCH  50  86
ATOM     86  CB  ILE A   7      10.819  25.686  20.950  0.00  0.00    +0.027 C 
ATOM     87  CG2 ILE A   7      10.325  26.038  22.350  0.00  0.00    +0.002 C 
BRANCH  86  88
ATOM     88  CG1 ILE A   7       9.749  24.942  20.136  0.00  0.00    +0.002 C 
ATOM     89  CD1 ILE A   7       8.485  25.738  19.885  0.00  0.00    +0.000 C 
ENDBRANCH  86  88
ENDBRANCH  50  86
ENDBRANCH  47  50
ENDBRANCH   1  46
BRANCH   1  90
ATOM     90  CB  ILE A   6      12.955  28.533  16.150  0.00  0.00    +0.027 C 
ATOM     91  CG2 ILE A   6      13.963  28.860  17.258  0.00  0.00    +0.002 C 
BRANCH  90  92
ATOM     92  CG1 ILE A   6      13.710  28.220  14.858  0.00  0.00    +0.002 C 
ATOM     93  CD1 ILE A   6      14.308  29.420  14.209  0.00  0.00    +0.000 C 
ENDBRANCH  90  92
ENDBRANCH   1  90
TORSDOF 33
REMARK  Name = ../refined-set-2016/3gi4/3gi4_pocket.pdb
REMARK  207 active torsions:
REMARK  status: ('A' for Active; 'I' for Inactive)
REMARK    1  A    between atoms: _1  and  _3
REMARK    2  A    between atoms: _3  and  _4
REMARK    3  A    between atoms: _3  and  _6
REMARK    4  A    between atoms: _6  and  _7
REMARK    5  A    between atoms: _7  and  _8
REMARK    6  A    between atoms: _8  and  _9
REMARK    7  A    between atoms: _18  and  _20
REMARK    8  A    between atoms: _20  and  _21
REMARK    9  A    between atoms: _20  and  _23
REMARK   10  A    between atoms: _23  and  _24
REMARK   11  A    between atoms: _27  and  _29
REMARK   12  A    between atoms: _29  and  _30
REMARK   13  A    between atoms: _29  and  _32
REMARK   14  A    between atoms: _32  and  _33
REMARK   15  A    between atoms: _36  and  _38
REMARK   16  A    between atoms: _38  and  _39
REMARK   17  A    between atoms: _38  and  _41
REMARK   18  A    between atoms: _41  and  _42
REMARK   19  A    between atoms: _45  and  _47
REMARK   20  A    between atoms: _47  and  _48
REMARK   21  A    between atoms: _47  and  _50
REMARK   22  A    between atoms: _50  and  _51
REMARK   23  A    between atoms: _54  and  _56
REMARK   24  A    between atoms: _56  and  _57
REMARK   25  A    between atoms: _59  and  _61
REMARK   26  A    between atoms: _61  and  _62
REMARK   27  A    between atoms: _65  and  _67
REMARK   28  A    between atoms: _67  and  _68
REMARK   29  A    between atoms: _67  and  _70
REMARK   30  A    between atoms: _70  and  _71
REMARK   31  A    between atoms: _74  and  _76
REMARK   32  A    between atoms: _76  and  _77
REMARK   33  A    between atoms: _76  and  _79
REMARK   34  A    between atoms: _79  and  _80
REMARK   35  A    between atoms: _83  and  _85
REMARK   36  A    between atoms: _85  and  _86
REMARK   37  A    between atoms: _85  and  _88
REMARK   38  A    between atoms: _88  and  _89
REMARK   39  A    between atoms: _92  and  _94
REMARK   40  A    between atoms: _94  and  _95
REMARK   41  A    between atoms: _94  and  _97
REMARK   42  A    between atoms: _100  and  _102
REMARK   43  A    between atoms: _102  and  _103
REMARK   44  A    between atoms: _102  and  _105
REMARK   45  A    between atoms: _105  and  _106
REMARK   46  A    between atoms: _109  and  _111
REMARK   47  A    between atoms: _111  and  _112
REMARK   48  A    between atoms: _114  and  _116
REMARK   49  A    between atoms: _116  and  _117
REMARK   50  A    between atoms: _119  and  _121
REMARK   51  A    between atoms: _121  and  _122
REMARK   52  A    between atoms: _121  and  _124
REMARK   53  A    between atoms: _124  and  _125
REMARK   54  A    between atoms: _128  and  _130
REMARK   55  A    between atoms: _130  and  _131
REMARK   56  A    between atoms: _133  and  _135
REMARK   57  A    between atoms: _135  and  _136
REMARK   58  A    between atoms: _138  and  _140
REMARK   59  A    between atoms: _140  and  _141
REMARK   60  A    between atoms: _140  and  _143
REMARK   61  A    between atoms: _143  and  _144
REMARK   62  A    between atoms: _150  and  _152
REMARK   63  A    between atoms: _152  and  _153
REMARK   64  A    between atoms: _152  and  _155
REMARK   65  A    between atoms: _155  and  _156
REMARK   66  A    between atoms: _159  and  _161
REMARK   67  A    between atoms: _161  and  _162
REMARK   68  A    between atoms: _161  and  _164
REMARK   69  A    between atoms: _164  and  _165
REMARK   70  A    between atoms: _169  and  _170
REMARK   71  A    between atoms: _175  and  _177
REMARK   72  A    between atoms: _177  and  _178
REMARK   73  A    between atoms: _177  and  _180
REMARK   74  A    between atoms: _183  and  _185
REMARK   75  A    between atoms: _185  and  _186
REMARK   76  A    between atoms: _185  and  _188
REMARK   77  A    between atoms: _188  and  _189
REMARK   78  A    between atoms: _194  and  _196
REMARK   79  A    between atoms: _196  and  _197
REMARK   80  A    between atoms: _196  and  _199
REMARK   81  A    between atoms: _199  and  _200
REMARK   82  A    between atoms: _203  and  _205
REMARK   83  A    between atoms: _205  and  _206
REMARK   84  A    between atoms: _205  and  _208
REMARK   85  A    between atoms: _208  and  _209
REMARK   86  A    between atoms: _212  and  _214
REMARK   87  A    between atoms: _214  and  _215
REMARK   88  A    between atoms: _217  and  _219
REMARK   89  A    between atoms: _219  and  _220
REMARK   90  A    between atoms: _219  and  _222
REMARK   91  A    between atoms: _222  and  _223
REMARK   92  A    between atoms: _223  and  _224
REMARK   93  A    between atoms: _224  and  _225
REMARK   94  A    between atoms: _234  and  _236
REMARK   95  A    between atoms: _236  and  _237
REMARK   96  A    between atoms: _236  and  _239
REMARK   97  A    between atoms: _239  and  _240
REMARK   98  A    between atoms: _240  and  _241
REMARK   99  A    between atoms: _241  and  _242
REMARK  100  A    between atoms: _251  and  _253
REMARK  101  A    between atoms: _253  and  _254
REMARK  102  A    between atoms: _253  and  _256
REMARK  103  A    between atoms: _256  and  _257
REMARK  104  A    between atoms: _260  and  _262
REMARK  105  A    between atoms: _262  and  _263
REMARK  106  A    between atoms: _262  and  _265
REMARK  107  A    between atoms: _265  and  _266
REMARK  108  A    between atoms: _269  and  _271
REMARK  109  A    between atoms: _271  and  _272
REMARK  110  A    between atoms: _271  and  _274
REMARK  111  A    between atoms: _274  and  _275
REMARK  112  A    between atoms: _278  and  _280
REMARK  113  A    between atoms: _280  and  _281
REMARK  114  A    between atoms: _280  and  _283
REMARK  115  A    between atoms: _283  and  _284
REMARK  116  A    between atoms: _287  and  _289
REMARK  117  A    between atoms: _289  and  _290
REMARK  118  A    between atoms: _292  and  _294
REMARK  119  A    between atoms: _294  and  _295
REMARK  120  A    between atoms: _298  and  _300
REMARK  121  A    between atoms: _300  and  _301
REMARK  122  A    between atoms: _300  and  _303
REMARK  123  A    between atoms: _303  and  _304
REMARK  124  A    between atoms: _307  and  _309
REMARK  125  A    between atoms: _309  and  _310
REMARK  126  A    between atoms: _309  and  _312
REMARK  127  A    between atoms: _312  and  _313
REMARK  128  A    between atoms: _316  and  _318
REMARK  129  A    between atoms: _318  and  _319
REMARK  130  A    between atoms: _318  and  _321
REMARK  131  A    between atoms: _321  and  _322
REMARK  132  A    between atoms: _325  and  _327
REMARK  133  A    between atoms: _327  and  _328
REMARK  134  A    between atoms: _327  and  _330
REMARK  135  A    between atoms: _333  and  _335
REMARK  136  A    between atoms: _335  and  _336
REMARK  137  A    between atoms: _335  and  _338
REMARK  138  A    between atoms: _338  and  _339
REMARK  139  A    between atoms: _339  and  _340
REMARK  140  A    between atoms: _340  and  _341
REMARK  141  A    between atoms: _341  and  _342
REMARK  142  A    between atoms: _346  and  _348
REMARK  143  A    between atoms: _348  and  _349
REMARK  144  A    between atoms: _348  and  _351
REMARK  145  A    between atoms: _351  and  _352
REMARK  146  A    between atoms: _352  and  _353
REMARK  147  A    between atoms: _355  and  _357
REMARK  148  A    between atoms: _357  and  _358
REMARK  149  A    between atoms: _357  and  _360
REMARK  150  A    between atoms: _360  and  _361
REMARK  151  A    between atoms: _364  and  _366
REMARK  152  A    between atoms: _366  and  _367
REMARK  153  A    between atoms: _369  and  _371
REMARK  154  A    between atoms: _371  and  _372
REMARK  155  A    between atoms: _374  and  _376
REMARK  156  A    between atoms: _376  and  _377
REMARK  157  A    between atoms: _376  and  _379
REMARK  158  A    between atoms: _379  and  _380
REMARK  159  A    between atoms: _383  and  _385
REMARK  160  A    between atoms: _385  and  _386
REMARK  161  A    between atoms: _388  and  _390
REMARK  162  A    between atoms: _390  and  _391
REMARK  163  A    between atoms: _393  and  _395
REMARK  164  A    between atoms: _395  and  _396
REMARK  165  A    between atoms: _395  and  _398
REMARK  166  A    between atoms: _398  and  _399
REMARK  167  A    between atoms: _405  and  _407
REMARK  168  A    between atoms: _407  and  _408
REMARK  169  A    between atoms: _407  and  _410
REMARK  170  A    between atoms: _410  and  _411
REMARK  171  A    between atoms: _414  and  _416
REMARK  172  A    between atoms: _416  and  _417
REMARK  173  A    between atoms: _416  and  _419
REMARK  174  A    between atoms: _419  and  _420
REMARK  175  A    between atoms: _424  and  _425
REMARK  176  A    between atoms: _430  and  _432
REMARK  177  A    between atoms: _432  and  _433
REMARK  178  A    between atoms: _432  and  _435
REMARK  179  A    between atoms: _435  and  _436
REMARK  180  A    between atoms: _440  and  _441
REMARK  181  A    between atoms: _446  and  _448
REMARK  182  A    between atoms: _448  and  _449
REMARK  183  A    between atoms: _448  and  _451
REMARK  184  A    between atoms: _454  and  _456
REMARK  185  A    between atoms: _456  and  _457
REMARK  186  A    between atoms: _456  and  _459
REMARK  187  A    between atoms: _459  and  _460
REMARK  188  A    between atoms: _465  and  _467
REMARK  189  A    between atoms: _467  and  _468
REMARK  190  A    between atoms: _467  and  _470
REMARK  191  A    between atoms: _470  and  _471
REMARK  192  A    between atoms: _474  and  _476
REMARK  193  A    between atoms: _476  and  _477
REMARK  194  A    between atoms: _476  and  _479
REMARK  195  A    between atoms: _479  and  _480
REMARK  196  A    between atoms: _483  and  _485
REMARK  197  A    between atoms: _485  and  _486
REMARK  198  A    between atoms: _488  and  _490
REMARK  199  A    between atoms: _490  and  _491
REMARK  200  A    between atoms: _490  and  _493
REMARK  201  A    between atoms: _493  and  _494
REMARK  202  A    between atoms: _494  and  _495
REMARK  203  A    between atoms: _495  and  _496
REMARK  204  A    between atoms: _505  and  _507
REMARK  205  A    between atoms: _507  and  _508
REMARK  206  A    between atoms: _507  and  _510
REMARK  207  A    between atoms: _510  and  _511
REMARK                            x       y       z     vdW  Elec       q    Type
REMARK                         _______ _______ _______ _____ _____    ______ ____
ROOT
ATOM      1  O   HOH     1      19.494  22.971  13.080  0.00  0.00    +0.000 OA
ENDROOT
TORSDOF 0
REMARK  Name = ../refined-set-2016/3gi4/3gi4_pocket.pdb
REMARK  207 active torsions:
REMARK  status: ('A' for Active; 'I' for Inactive)
REMARK    1  A    between atoms: _1  and  _3
REMARK    2  A    between atoms: _3  and  _4
REMARK    3  A    between atoms: _3  and  _6
REMARK    4  A    between atoms: _6  and  _7
REMARK    5  A    between atoms: _7  and  _8
REMARK    6  A    between atoms: _8  and  _9
REMARK    7  A    between atoms: _18  and  _20
REMARK    8  A    between atoms: _20  and  _21
REMARK    9  A    between atoms: _20  and  _23
REMARK   10  A    between atoms: _23  and  _24
REMARK   11  A    between atoms: _27  and  _29
REMARK   12  A    between atoms: _29  and  _30
REMARK   13  A    between atoms: _29  and  _32
REMARK   14  A    between atoms: _32  and  _33
REMARK   15  A    between atoms: _36  and  _38
REMARK   16  A    between atoms: _38  and  _39
REMARK   17  A    between atoms: _38  and  _41
REMARK   18  A    between atoms: _41  and  _42
REMARK   19  A    between atoms: _45  and  _47
REMARK   20  A    between atoms: _47  and  _48
REMARK   21  A    between atoms: _47  and  _50
REMARK   22  A    between atoms: _50  and  _51
REMARK   23  A    between atoms: _54  and  _56
REMARK   24  A    between atoms: _56  and  _57
REMARK   25  A    between atoms: _59  and  _61
REMARK   26  A    between atoms: _61  and  _62
REMARK   27  A    between atoms: _65  and  _67
REMARK   28  A    between atoms: _67  and  _68
REMARK   29  A    between atoms: _67  and  _70
REMARK   30  A    between atoms: _70  and  _71
REMARK   31  A    between atoms: _74  and  _76
REMARK   32  A    between atoms: _76  and  _77
REMARK   33  A    between atoms: _76  and  _79
REMARK   34  A    between atoms: _79  and  _80
REMARK   35  A    between atoms: _83  and  _85
REMARK   36  A    between atoms: _85  and  _86
REMARK   37  A    between atoms: _85  and  _88
REMARK   38  A    between atoms: _88  and  _89
REMARK   39  A    between atoms: _92  and  _94
REMARK   40  A    between atoms: _94  and  _95
REMARK   41  A    between atoms: _94  and  _97
REMARK   42  A    between atoms: _100  and  _102
REMARK   43  A    between atoms: _102  and  _103
REMARK   44  A    between atoms: _102  and  _105
REMARK   45  A    between atoms: _105  and  _106
REMARK   46  A    between atoms: _109  and  _111
REMARK   47  A    between atoms: _111  and  _112
REMARK   48  A    between atoms: _114  and  _116
REMARK   49  A    between atoms: _116  and  _117
REMARK   50  A    between atoms: _119  and  _121
REMARK   51  A    between atoms: _121  and  _122
REMARK   52  A    between atoms: _121  and  _124
REMARK   53  A    between atoms: _124  and  _125
REMARK   54  A    between atoms: _128  and  _130
REMARK   55  A    between atoms: _130  and  _131
REMARK   56  A    between atoms: _133  and  _135
REMARK   57  A    between atoms: _135  and  _136
REMARK   58  A    between atoms: _138  and  _140
REMARK   59  A    between atoms: _140  and  _141
REMARK   60  A    between atoms: _140  and  _143
REMARK   61  A    between atoms: _143  and  _144
REMARK   62  A    between atoms: _150  and  _152
REMARK   63  A    between atoms: _152  and  _153
REMARK   64  A    between atoms: _152  and  _155
REMARK   65  A    between atoms: _155  and  _156
REMARK   66  A    between atoms: _159  and  _161
REMARK   67  A    between atoms: _161  and  _162
REMARK   68  A    between atoms: _161  and  _164
REMARK   69  A    between atoms: _164  and  _165
REMARK   70  A    between atoms: _169  and  _170
REMARK   71  A    between atoms: _175  and  _177
REMARK   72  A    between atoms: _177  and  _178
REMARK   73  A    between atoms: _177  and  _180
REMARK   74  A    between atoms: _183  and  _185
REMARK   75  A    between atoms: _185  and  _186
REMARK   76  A    between atoms: _185  and  _188
REMARK   77  A    between atoms: _188  and  _189
REMARK   78  A    between atoms: _194  and  _196
REMARK   79  A    between atoms: _196  and  _197
REMARK   80  A    between atoms: _196  and  _199
REMARK   81  A    between atoms: _199  and  _200
REMARK   82  A    between atoms: _203  and  _205
REMARK   83  A    between atoms: _205  and  _206
REMARK   84  A    between atoms: _205  and  _208
REMARK   85  A    between atoms: _208  and  _209
REMARK   86  A    between atoms: _212  and  _214
REMARK   87  A    between atoms: _214  and  _215
REMARK   88  A    between atoms: _217  and  _219
REMARK   89  A    between atoms: _219  and  _220
REMARK   90  A    between atoms: _219  and  _222
REMARK   91  A    between atoms: _222  and  _223
REMARK   92  A    between atoms: _223  and  _224
REMARK   93  A    between atoms: _224  and  _225
REMARK   94  A    between atoms: _234  and  _236
REMARK   95  A    between atoms: _236  and  _237
REMARK   96  A    between atoms: _236  and  _239
REMARK   97  A    between atoms: _239  and  _240
REMARK   98  A    between atoms: _240  and  _241
REMARK   99  A    between atoms: _241  and  _242
REMARK  100  A    between atoms: _251  and  _253
REMARK  101  A    between atoms: _253  and  _254
REMARK  102  A    between atoms: _253  and  _256
REMARK  103  A    between atoms: _256  and  _257
REMARK  104  A    between atoms: _260  and  _262
REMARK  105  A    between atoms: _262  and  _263
REMARK  106  A    between atoms: _262  and  _265
REMARK  107  A    between atoms: _265  and  _266
REMARK  108  A    between atoms: _269  and  _271
REMARK  109  A    between atoms: _271  and  _272
REMARK  110  A    between atoms: _271  and  _274
REMARK  111  A    between atoms: _274  and  _275
REMARK  112  A    between atoms: _278  and  _280
REMARK  113  A    between atoms: _280  and  _281
REMARK  114  A    between atoms: _280  and  _283
REMARK  115  A    between atoms: _283  and  _284
REMARK  116  A    between atoms: _287  and  _289
REMARK  117  A    between atoms: _289  and  _290
REMARK  118  A    between atoms: _292  and  _294
REMARK  119  A    between atoms: _294  and  _295
REMARK  120  A    between atoms: _298  and  _300
REMARK  121  A    between atoms: _300  and  _301
REMARK  122  A    between atoms: _300  and  _303
REMARK  123  A    between atoms: _303  and  _304
REMARK  124  A    between atoms: _307  and  _309
REMARK  125  A    between atoms: _309  and  _310
REMARK  126  A    between atoms: _309  and  _312
REMARK  127  A    between atoms: _312  and  _313
REMARK  128  A    between atoms: _316  and  _318
REMARK  129  A    between atoms: _318  and  _319
REMARK  130  A    between atoms: _318  and  _321
REMARK  131  A    between atoms: _321  and  _322
REMARK  132  A    between atoms: _325  and  _327
REMARK  133  A    between atoms: _327  and  _328
REMARK  134  A    between atoms: _327  and  _330
REMARK  135  A    between atoms: _333  and  _335
REMARK  136  A    between atoms: _335  and  _336
REMARK  137  A    between atoms: _335  and  _338
REMARK  138  A    between atoms: _338  and  _339
REMARK  139  A    between atoms: _339  and  _340
REMARK  140  A    between atoms: _340  and  _341
REMARK  141  A    between atoms: _341  and  _342
REMARK  142  A    between atoms: _346  and  _348
REMARK  143  A    between atoms: _348  and  _349
REMARK  144  A    between atoms: _348  and  _351
REMARK  145  A    between atoms: _351  and  _352
REMARK  146  A    between atoms: _352  and  _353
REMARK  147  A    between atoms: _355  and  _357
REMARK  148  A    between atoms: _357  and  _358
REMARK  149  A    between atoms: _357  and  _360
REMARK  150  A    between atoms: _360  and  _361
REMARK  151  A    between atoms: _364  and  _366
REMARK  152  A    between atoms: _366  and  _367
REMARK  153  A    between atoms: _369  and  _371
REMARK  154  A    between atoms: _371  and  _372
REMARK  155  A    between atoms: _374  and  _376
REMARK  156  A    between atoms: _376  and  _377
REMARK  157  A    between atoms: _376  and  _379
REMARK  158  A    between atoms: _379  and  _380
REMARK  159  A    between atoms: _383  and  _385
REMARK  160  A    between atoms: _385  and  _386
REMARK  161  A    between atoms: _388  and  _390
REMARK  162  A    between atoms: _390  and  _391
REMARK  163  A    between atoms: _393  and  _395
REMARK  164  A    between atoms: _395  and  _396
REMARK  165  A    between atoms: _395  and  _398
REMARK  166  A    between atoms: _398  and  _399
REMARK  167  A    between atoms: _405  and  _407
REMARK  168  A    between atoms: _407  and  _408
REMARK  169  A    between atoms: _407  and  _410
REMARK  170  A    between atoms: _410  and  _411
REMARK  171  A    between atoms: _414  and  _416
REMARK  172  A    between atoms: _416  and  _417
REMARK  173  A    between atoms: _416  and  _419
REMARK  174  A    between atoms: _419  and  _420
REMARK  175  A    between atoms: _424  and  _425
REMARK  176  A    between atoms: _430  and  _432
REMARK  177  A    between atoms: _432  and  _433
REMARK  178  A    between atoms: _432  and  _435
REMARK  179  A    between atoms: _435  and  _436
REMARK  180  A    between atoms: _440  and  _441
REMARK  181  A    between atoms: _446  and  _448
REMARK  182  A    between atoms: _448  and  _449
REMARK  183  A    between atoms: _448  and  _451
REMARK  184  A    between atoms: _454  and  _456
REMARK  185  A    between atoms: _456  and  _457
REMARK  186  A    between atoms: _456  and  _459
REMARK  187  A    between atoms: _459  and  _460
REMARK  188  A    between atoms: _465  and  _467
REMARK  189  A    between atoms: _467  and  _468
REMARK  190  A    between atoms: _467  and  _470
REMARK  191  A    between atoms: _470  and  _471
REMARK  192  A    between atoms: _474  and  _476
REMARK  193  A    between atoms: _476  and  _477
REMARK  194  A    between atoms: _476  and  _479
REMARK  195  A    between atoms: _479  and  _480
REMARK  196  A    between atoms: _483  and  _485
REMARK  197  A    between atoms: _485  and  _486
REMARK  198  A    between atoms: _488  and  _490
REMARK  199  A    between atoms: _490  and  _491
REMARK  200  A    between atoms: _490  and  _493
REMARK  201  A    between atoms: _493  and  _494
REMARK  202  A    between atoms: _494  and  _495
REMARK  203  A    between atoms: _495  and  _496
REMARK  204  A    between atoms: _505  and  _507
REMARK  205  A    between atoms: _507  and  _508
REMARK  206  A    between atoms: _507  and  _510
REMARK  207  A    between atoms: _510  and  _511
REMARK                            x       y       z     vdW  Elec       q    Type
REMARK                         _______ _______ _______ _____ _____    ______ ____
ROOT
ATOM      1  O   HOH     1      25.015  18.380  10.514  0.00  0.00    +0.000 OA
ENDROOT
TORSDOF 0
REMARK  Name = ../refined-set-2016/3gi4/3gi4_pocket.pdb
REMARK  207 active torsions:
REMARK  status: ('A' for Active; 'I' for Inactive)
REMARK    1  A    between atoms: _1  and  _3
REMARK    2  A    between atoms: _3  and  _4
REMARK    3  A    between atoms: _3  and  _6
REMARK    4  A    between atoms: _6  and  _7
REMARK    5  A    between atoms: _7  and  _8
REMARK    6  A    between atoms: _8  and  _9
REMARK    7  A    between atoms: _18  and  _20
REMARK    8  A    between atoms: _20  and  _21
REMARK    9  A    between atoms: _20  and  _23
REMARK   10  A    between atoms: _23  and  _24
REMARK   11  A    between atoms: _27  and  _29
REMARK   12  A    between atoms: _29  and  _30
REMARK   13  A    between atoms: _29  and  _32
REMARK   14  A    between atoms: _32  and  _33
REMARK   15  A    between atoms: _36  and  _38
REMARK   16  A    between atoms: _38  and  _39
REMARK   17  A    between atoms: _38  and  _41
REMARK   18  A    between atoms: _41  and  _42
REMARK   19  A    between atoms: _45  and  _47
REMARK   20  A    between atoms: _47  and  _48
REMARK   21  A    between atoms: _47  and  _50
REMARK   22  A    between atoms: _50  and  _51
REMARK   23  A    between atoms: _54  and  _56
REMARK   24  A    between atoms: _56  and  _57
REMARK   25  A    between atoms: _59  and  _61
REMARK   26  A    between atoms: _61  and  _62
REMARK   27  A    between atoms: _65  and  _67
REMARK   28  A    between atoms: _67  and  _68
REMARK   29  A    between atoms: _67  and  _70
REMARK   30  A    between atoms: _70  and  _71
REMARK   31  A    between atoms: _74  and  _76
REMARK   32  A    between atoms: _76  and  _77
REMARK   33  A    between atoms: _76  and  _79
REMARK   34  A    between atoms: _79  and  _80
REMARK   35  A    between atoms: _83  and  _85
REMARK   36  A    between atoms: _85  and  _86
REMARK   37  A    between atoms: _85  and  _88
REMARK   38  A    between atoms: _88  and  _89
REMARK   39  A    between atoms: _92  and  _94
REMARK   40  A    between atoms: _94  and  _95
REMARK   41  A    between atoms: _94  and  _97
REMARK   42  A    between atoms: _100  and  _102
REMARK   43  A    between atoms: _102  and  _103
REMARK   44  A    between atoms: _102  and  _105
REMARK   45  A    between atoms: _105  and  _106
REMARK   46  A    between atoms: _109  and  _111
REMARK   47  A    between atoms: _111  and  _112
REMARK   48  A    between atoms: _114  and  _116
REMARK   49  A    between atoms: _116  and  _117
REMARK   50  A    between atoms: _119  and  _121
REMARK   51  A    between atoms: _121  and  _122
REMARK   52  A    between atoms: _121  and  _124
REMARK   53  A    between atoms: _124  and  _125
REMARK   54  A    between atoms: _128  and  _130
REMARK   55  A    between atoms: _130  and  _131
REMARK   56  A    between atoms: _133  and  _135
REMARK   57  A    between atoms: _135  and  _136
REMARK   58  A    between atoms: _138  and  _140
REMARK   59  A    between atoms: _140  and  _141
REMARK   60  A    between atoms: _140  and  _143
REMARK   61  A    between atoms: _143  and  _144
REMARK   62  A    between atoms: _150  and  _152
REMARK   63  A    between atoms: _152  and  _153
REMARK   64  A    between atoms: _152  and  _155
REMARK   65  A    between atoms: _155  and  _156
REMARK   66  A    between atoms: _159  and  _161
REMARK   67  A    between atoms: _161  and  _162
REMARK   68  A    between atoms: _161  and  _164
REMARK   69  A    between atoms: _164  and  _165
REMARK   70  A    between atoms: _169  and  _170
REMARK   71  A    between atoms: _175  and  _177
REMARK   72  A    between atoms: _177  and  _178
REMARK   73  A    between atoms: _177  and  _180
REMARK   74  A    between atoms: _183  and  _185
REMARK   75  A    between atoms: _185  and  _186
REMARK   76  A    between atoms: _185  and  _188
REMARK   77  A    between atoms: _188  and  _189
REMARK   78  A    between atoms: _194  and  _196
REMARK   79  A    between atoms: _196  and  _197
REMARK   80  A    between atoms: _196  and  _199
REMARK   81  A    between atoms: _199  and  _200
REMARK   82  A    between atoms: _203  and  _205
REMARK   83  A    between atoms: _205  and  _206
REMARK   84  A    between atoms: _205  and  _208
REMARK   85  A    between atoms: _208  and  _209
REMARK   86  A    between atoms: _212  and  _214
REMARK   87  A    between atoms: _214  and  _215
REMARK   88  A    between atoms: _217  and  _219
REMARK   89  A    between atoms: _219  and  _220
REMARK   90  A    between atoms: _219  and  _222
REMARK   91  A    between atoms: _222  and  _223
REMARK   92  A    between atoms: _223  and  _224
REMARK   93  A    between atoms: _224  and  _225
REMARK   94  A    between atoms: _234  and  _236
REMARK   95  A    between atoms: _236  and  _237
REMARK   96  A    between atoms: _236  and  _239
REMARK   97  A    between atoms: _239  and  _240
REMARK   98  A    between atoms: _240  and  _241
REMARK   99  A    between atoms: _241  and  _242
REMARK  100  A    between atoms: _251  and  _253
REMARK  101  A    between atoms: _253  and  _254
REMARK  102  A    between atoms: _253  and  _256
REMARK  103  A    between atoms: _256  and  _257
REMARK  104  A    between atoms: _260  and  _262
REMARK  105  A    between atoms: _262  and  _263
REMARK  106  A    between atoms: _262  and  _265
REMARK  107  A    between atoms: _265  and  _266
REMARK  108  A    between atoms: _269  and  _271
REMARK  109  A    between atoms: _271  and  _272
REMARK  110  A    between atoms: _271  and  _274
REMARK  111  A    between atoms: _274  and  _275
REMARK  112  A    between atoms: _278  and  _280
REMARK  113  A    between atoms: _280  and  _281
REMARK  114  A    between atoms: _280  and  _283
REMARK  115  A    between atoms: _283  and  _284
REMARK  116  A    between atoms: _287  and  _289
REMARK  117  A    between atoms: _289  and  _290
REMARK  118  A    between atoms: _292  and  _294
REMARK  119  A    between atoms: _294  and  _295
REMARK  120  A    between atoms: _298  and  _300
REMARK  121  A    between atoms: _300  and  _301
REMARK  122  A    between atoms: _300  and  _303
REMARK  123  A    between atoms: _303  and  _304
REMARK  124  A    between atoms: _307  and  _309
REMARK  125  A    between atoms: _309  and  _310
REMARK  126  A    between atoms: _309  and  _312
REMARK  127  A    between atoms: _312  and  _313
REMARK  128  A    between atoms: _316  and  _318
REMARK  129  A    between atoms: _318  and  _319
REMARK  130  A    between atoms: _318  and  _321
REMARK  131  A    between atoms: _321  and  _322
REMARK  132  A    between atoms: _325  and  _327
REMARK  133  A    between atoms: _327  and  _328
REMARK  134  A    between atoms: _327  and  _330
REMARK  135  A    between atoms: _333  and  _335
REMARK  136  A    between atoms: _335  and  _336
REMARK  137  A    between atoms: _335  and  _338
REMARK  138  A    between atoms: _338  and  _339
REMARK  139  A    between atoms: _339  and  _340
REMARK  140  A    between atoms: _340  and  _341
REMARK  141  A    between atoms: _341  and  _342
REMARK  142  A    between atoms: _346  and  _348
REMARK  143  A    between atoms: _348  and  _349
REMARK  144  A    between atoms: _348  and  _351
REMARK  145  A    between atoms: _351  and  _352
REMARK  146  A    between atoms: _352  and  _353
REMARK  147  A    between atoms: _355  and  _357
REMARK  148  A    between atoms: _357  and  _358
REMARK  149  A    between atoms: _357  and  _360
REMARK  150  A    between atoms: _360  and  _361
REMARK  151  A    between atoms: _364  and  _366
REMARK  152  A    between atoms: _366  and  _367
REMARK  153  A    between atoms: _369  and  _371
REMARK  154  A    between atoms: _371  and  _372
REMARK  155  A    between atoms: _374  and  _376
REMARK  156  A    between atoms: _376  and  _377
REMARK  157  A    between atoms: _376  and  _379
REMARK  158  A    between atoms: _379  and  _380
REMARK  159  A    between atoms: _383  and  _385
REMARK  160  A    between atoms: _385  and  _386
REMARK  161  A    between atoms: _388  and  _390
REMARK  162  A    between atoms: _390  and  _391
REMARK  163  A    between atoms: _393  and  _395
REMARK  164  A    between atoms: _395  and  _396
REMARK  165  A    between atoms: _395  and  _398
REMARK  166  A    between atoms: _398  and  _399
REMARK  167  A    between atoms: _405  and  _407
REMARK  168  A    between atoms: _407  and  _408
REMARK  169  A    between atoms: _407  and  _410
REMARK  170  A    between atoms: _410  and  _411
REMARK  171  A    between atoms: _414  and  _416
REMARK  172  A    between atoms: _416  and  _417
REMARK  173  A    between atoms: _416  and  _419
REMARK  174  A    between atoms: _419  and  _420
REMARK  175  A    between atoms: _424  and  _425
REMARK  176  A    between atoms: _430  and  _432
REMARK  177  A    between atoms: _432  and  _433
REMARK  178  A    between atoms: _432  and  _435
REMARK  179  A    between atoms: _435  and  _436
REMARK  180  A    between atoms: _440  and  _441
REMARK  181  A    between atoms: _446  and  _448
REMARK  182  A    between atoms: _448  and  _449
REMARK  183  A    between atoms: _448  and  _451
REMARK  184  A    between atoms: _454  and  _456
REMARK  185  A    between atoms: _456  and  _457
REMARK  186  A    between atoms: _456  and  _459
REMARK  187  A    between atoms: _459  and  _460
REMARK  188  A    between atoms: _465  and  _467
REMARK  189  A    between atoms: _467  and  _468
REMARK  190  A    between atoms: _467  and  _470
REMARK  191  A    between atoms: _470  and  _471
REMARK  192  A    between atoms: _474  and  _476
REMARK  193  A    between atoms: _476  and  _477
REMARK  194  A    between atoms: _476  and  _479
REMARK  195  A    between atoms: _479  and  _480
REMARK  196  A    between atoms: _483  and  _485
REMARK  197  A    between atoms: _485  and  _486
REMARK  198  A    between atoms: _488  and  _490
REMARK  199  A    between atoms: _490  and  _491
REMARK  200  A    between atoms: _490  and  _493
REMARK  201  A    between atoms: _493  and  _494
REMARK  202  A    between atoms: _494  and  _495
REMARK  203  A    between atoms: _495  and  _496
REMARK  204  A    between atoms: _505  and  _507
REMARK  205  A    between atoms: _507  and  _508
REMARK  206  A    between atoms: _507  and  _510
REMARK  207  A    between atoms: _510  and  _511
REMARK                            x       y       z     vdW  Elec       q    Type
REMARK                         _______ _______ _______ _____ _____    ______ ____
ROOT
ATOM      1  O   HOH     1      20.173  21.642  15.371  0.00  0.00    +0.000 OA
ENDROOT
TORSDOF 0
REMARK  Name = ../refined-set-2016/3gi4/3gi4_pocket.pdb
REMARK  207 active torsions:
REMARK  status: ('A' for Active; 'I' for Inactive)
REMARK    1  A    between atoms: _1  and  _3
REMARK    2  A    between atoms: _3  and  _4
REMARK    3  A    between atoms: _3  and  _6
REMARK    4  A    between atoms: _6  and  _7
REMARK    5  A    between atoms: _7  and  _8
REMARK    6  A    between atoms: _8  and  _9
REMARK    7  A    between atoms: _18  and  _20
REMARK    8  A    between atoms: _20  and  _21
REMARK    9  A    between atoms: _20  and  _23
REMARK   10  A    between atoms: _23  and  _24
REMARK   11  A    between atoms: _27  and  _29
REMARK   12  A    between atoms: _29  and  _30
REMARK   13  A    between atoms: _29  and  _32
REMARK   14  A    between atoms: _32  and  _33
REMARK   15  A    between atoms: _36  and  _38
REMARK   16  A    between atoms: _38  and  _39
REMARK   17  A    between atoms: _38  and  _41
REMARK   18  A    between atoms: _41  and  _42
REMARK   19  A    between atoms: _45  and  _47
REMARK   20  A    between atoms: _47  and  _48
REMARK   21  A    between atoms: _47  and  _50
REMARK   22  A    between atoms: _50  and  _51
REMARK   23  A    between atoms: _54  and  _56
REMARK   24  A    between atoms: _56  and  _57
REMARK   25  A    between atoms: _59  and  _61
REMARK   26  A    between atoms: _61  and  _62
REMARK   27  A    between atoms: _65  and  _67
REMARK   28  A    between atoms: _67  and  _68
REMARK   29  A    between atoms: _67  and  _70
REMARK   30  A    between atoms: _70  and  _71
REMARK   31  A    between atoms: _74  and  _76
REMARK   32  A    between atoms: _76  and  _77
REMARK   33  A    between atoms: _76  and  _79
REMARK   34  A    between atoms: _79  and  _80
REMARK   35  A    between atoms: _83  and  _85
REMARK   36  A    between atoms: _85  and  _86
REMARK   37  A    between atoms: _85  and  _88
REMARK   38  A    between atoms: _88  and  _89
REMARK   39  A    between atoms: _92  and  _94
REMARK   40  A    between atoms: _94  and  _95
REMARK   41  A    between atoms: _94  and  _97
REMARK   42  A    between atoms: _100  and  _102
REMARK   43  A    between atoms: _102  and  _103
REMARK   44  A    between atoms: _102  and  _105
REMARK   45  A    between atoms: _105  and  _106
REMARK   46  A    between atoms: _109  and  _111
REMARK   47  A    between atoms: _111  and  _112
REMARK   48  A    between atoms: _114  and  _116
REMARK   49  A    between atoms: _116  and  _117
REMARK   50  A    between atoms: _119  and  _121
REMARK   51  A    between atoms: _121  and  _122
REMARK   52  A    between atoms: _121  and  _124
REMARK   53  A    between atoms: _124  and  _125
REMARK   54  A    between atoms: _128  and  _130
REMARK   55  A    between atoms: _130  and  _131
REMARK   56  A    between atoms: _133  and  _135
REMARK   57  A    between atoms: _135  and  _136
REMARK   58  A    between atoms: _138  and  _140
REMARK   59  A    between atoms: _140  and  _141
REMARK   60  A    between atoms: _140  and  _143
REMARK   61  A    between atoms: _143  and  _144
REMARK   62  A    between atoms: _150  and  _152
REMARK   63  A    between atoms: _152  and  _153
REMARK   64  A    between atoms: _152  and  _155
REMARK   65  A    between atoms: _155  and  _156
REMARK   66  A    between atoms: _159  and  _161
REMARK   67  A    between atoms: _161  and  _162
REMARK   68  A    between atoms: _161  and  _164
REMARK   69  A    between atoms: _164  and  _165
REMARK   70  A    between atoms: _169  and  _170
REMARK   71  A    between atoms: _175  and  _177
REMARK   72  A    between atoms: _177  and  _178
REMARK   73  A    between atoms: _177  and  _180
REMARK   74  A    between atoms: _183  and  _185
REMARK   75  A    between atoms: _185  and  _186
REMARK   76  A    between atoms: _185  and  _188
REMARK   77  A    between atoms: _188  and  _189
REMARK   78  A    between atoms: _194  and  _196
REMARK   79  A    between atoms: _196  and  _197
REMARK   80  A    between atoms: _196  and  _199
REMARK   81  A    between atoms: _199  and  _200
REMARK   82  A    between atoms: _203  and  _205
REMARK   83  A    between atoms: _205  and  _206
REMARK   84  A    between atoms: _205  and  _208
REMARK   85  A    between atoms: _208  and  _209
REMARK   86  A    between atoms: _212  and  _214
REMARK   87  A    between atoms: _214  and  _215
REMARK   88  A    between atoms: _217  and  _219
REMARK   89  A    between atoms: _219  and  _220
REMARK   90  A    between atoms: _219  and  _222
REMARK   91  A    between atoms: _222  and  _223
REMARK   92  A    between atoms: _223  and  _224
REMARK   93  A    between atoms: _224  and  _225
REMARK   94  A    between atoms: _234  and  _236
REMARK   95  A    between atoms: _236  and  _237
REMARK   96  A    between atoms: _236  and  _239
REMARK   97  A    between atoms: _239  and  _240
REMARK   98  A    between atoms: _240  and  _241
REMARK   99  A    between atoms: _241  and  _242
REMARK  100  A    between atoms: _251  and  _253
REMARK  101  A    between atoms: _253  and  _254
REMARK  102  A    between atoms: _253  and  _256
REMARK  103  A    between atoms: _256  and  _257
REMARK  104  A    between atoms: _260  and  _262
REMARK  105  A    between atoms: _262  and  _263
REMARK  106  A    between atoms: _262  and  _265
REMARK  107  A    between atoms: _265  and  _266
REMARK  108  A    between atoms: _269  and  _271
REMARK  109  A    between atoms: _271  and  _272
REMARK  110  A    between atoms: _271  and  _274
REMARK  111  A    between atoms: _274  and  _275
REMARK  112  A    between atoms: _278  and  _280
REMARK  113  A    between atoms: _280  and  _281
REMARK  114  A    between atoms: _280  and  _283
REMARK  115  A    between atoms: _283  and  _284
REMARK  116  A    between atoms: _287  and  _289
REMARK  117  A    between atoms: _289  and  _290
REMARK  118  A    between atoms: _292  and  _294
REMARK  119  A    between atoms: _294  and  _295
REMARK  120  A    between atoms: _298  and  _300
REMARK  121  A    between atoms: _300  and  _301
REMARK  122  A    between atoms: _300  and  _303
REMARK  123  A    between atoms: _303  and  _304
REMARK  124  A    between atoms: _307  and  _309
REMARK  125  A    between atoms: _309  and  _310
REMARK  126  A    between atoms: _309  and  _312
REMARK  127  A    between atoms: _312  and  _313
REMARK  128  A    between atoms: _316  and  _318
REMARK  129  A    between atoms: _318  and  _319
REMARK  130  A    between atoms: _318  and  _321
REMARK  131  A    between atoms: _321  and  _322
REMARK  132  A    between atoms: _325  and  _327
REMARK  133  A    between atoms: _327  and  _328
REMARK  134  A    between atoms: _327  and  _330
REMARK  135  A    between atoms: _333  and  _335
REMARK  136  A    between atoms: _335  and  _336
REMARK  137  A    between atoms: _335  and  _338
REMARK  138  A    between atoms: _338  and  _339
REMARK  139  A    between atoms: _339  and  _340
REMARK  140  A    between atoms: _340  and  _341
REMARK  141  A    between atoms: _341  and  _342
REMARK  142  A    between atoms: _346  and  _348
REMARK  143  A    between atoms: _348  and  _349
REMARK  144  A    between atoms: _348  and  _351
REMARK  145  A    between atoms: _351  and  _352
REMARK  146  A    between atoms: _352  and  _353
REMARK  147  A    between atoms: _355  and  _357
REMARK  148  A    between atoms: _357  and  _358
REMARK  149  A    between atoms: _357  and  _360
REMARK  150  A    between atoms: _360  and  _361
REMARK  151  A    between atoms: _364  and  _366
REMARK  152  A    between atoms: _366  and  _367
REMARK  153  A    between atoms: _369  and  _371
REMARK  154  A    between atoms: _371  and  _372
REMARK  155  A    between atoms: _374  and  _376
REMARK  156  A    between atoms: _376  and  _377
REMARK  157  A    between atoms: _376  and  _379
REMARK  158  A    between atoms: _379  and  _380
REMARK  159  A    between atoms: _383  and  _385
REMARK  160  A    between atoms: _385  and  _386
REMARK  161  A    between atoms: _388  and  _390
REMARK  162  A    between atoms: _390  and  _391
REMARK  163  A    between atoms: _393  and  _395
REMARK  164  A    between atoms: _395  and  _396
REMARK  165  A    between atoms: _395  and  _398
REMARK  166  A    between atoms: _398  and  _399
REMARK  167  A    between atoms: _405  and  _407
REMARK  168  A    between atoms: _407  and  _408
REMARK  169  A    between atoms: _407  and  _410
REMARK  170  A    between atoms: _410  and  _411
REMARK  171  A    between atoms: _414  and  _416
REMARK  172  A    between atoms: _416  and  _417
REMARK  173  A    between atoms: _416  and  _419
REMARK  174  A    between atoms: _419  and  _420
REMARK  175  A    between atoms: _424  and  _425
REMARK  176  A    between atoms: _430  and  _432
REMARK  177  A    between atoms: _432  and  _433
REMARK  178  A    between atoms: _432  and  _435
REMARK  179  A    between atoms: _435  and  _436
REMARK  180  A    between atoms: _440  and  _441
REMARK  181  A    between atoms: _446  and  _448
REMARK  182  A    between atoms: _448  and  _449
REMARK  183  A    between atoms: _448  and  _451
REMARK  184  A    between atoms: _454  and  _456
REMARK  185  A    between atoms: _456  and  _457
REMARK  186  A    between atoms: _456  and  _459
REMARK  187  A    between atoms: _459  and  _460
REMARK  188  A    between atoms: _465  and  _467
REMARK  189  A    between atoms: _467  and  _468
REMARK  190  A    between atoms: _467  and  _470
REMARK  191  A    between atoms: _470  and  _471
REMARK  192  A    between atoms: _474  and  _476
REMARK  193  A    between atoms: _476  and  _477
REMARK  194  A    between atoms: _476  and  _479
REMARK  195  A    between atoms: _479  and  _480
REMARK  196  A    between atoms: _483  and  _485
REMARK  197  A    between atoms: _485  and  _486
REMARK  198  A    between atoms: _488  and  _490
REMARK  199  A    between atoms: _490  and  _491
REMARK  200  A    between atoms: _490  and  _493
REMARK  201  A    between atoms: _493  and  _494
REMARK  202  A    between atoms: _494  and  _495
REMARK  203  A    between atoms: _495  and  _496
REMARK  204  A    between atoms: _505  and  _507
REMARK  205  A    between atoms: _507  and  _508
REMARK  206  A    between atoms: _507  and  _510
REMARK  207  A    between atoms: _510  and  _511
REMARK                            x       y       z     vdW  Elec       q    Type
REMARK                         _______ _______ _______ _____ _____    ______ ____
ROOT
ATOM      1  O   HOH     1      24.173  22.051   8.118  0.00  0.00    +0.000 OA
ENDROOT
TORSDOF 0
REMARK  Name = ../refined-set-2016/3gi4/3gi4_pocket.pdb
REMARK  207 active torsions:
REMARK  status: ('A' for Active; 'I' for Inactive)
REMARK    1  A    between atoms: _1  and  _3
REMARK    2  A    between atoms: _3  and  _4
REMARK    3  A    between atoms: _3  and  _6
REMARK    4  A    between atoms: _6  and  _7
REMARK    5  A    between atoms: _7  and  _8
REMARK    6  A    between atoms: _8  and  _9
REMARK    7  A    between atoms: _18  and  _20
REMARK    8  A    between atoms: _20  and  _21
REMARK    9  A    between atoms: _20  and  _23
REMARK   10  A    between atoms: _23  and  _24
REMARK   11  A    between atoms: _27  and  _29
REMARK   12  A    between atoms: _29  and  _30
REMARK   13  A    between atoms: _29  and  _32
REMARK   14  A    between atoms: _32  and  _33
REMARK   15  A    between atoms: _36  and  _38
REMARK   16  A    between atoms: _38  and  _39
REMARK   17  A    between atoms: _38  and  _41
REMARK   18  A    between atoms: _41  and  _42
REMARK   19  A    between atoms: _45  and  _47
REMARK   20  A    between atoms: _47  and  _48
REMARK   21  A    between atoms: _47  and  _50
REMARK   22  A    between atoms: _50  and  _51
REMARK   23  A    between atoms: _54  and  _56
REMARK   24  A    between atoms: _56  and  _57
REMARK   25  A    between atoms: _59  and  _61
REMARK   26  A    between atoms: _61  and  _62
REMARK   27  A    between atoms: _65  and  _67
REMARK   28  A    between atoms: _67  and  _68
REMARK   29  A    between atoms: _67  and  _70
REMARK   30  A    between atoms: _70  and  _71
REMARK   31  A    between atoms: _74  and  _76
REMARK   32  A    between atoms: _76  and  _77
REMARK   33  A    between atoms: _76  and  _79
REMARK   34  A    between atoms: _79  and  _80
REMARK   35  A    between atoms: _83  and  _85
REMARK   36  A    between atoms: _85  and  _86
REMARK   37  A    between atoms: _85  and  _88
REMARK   38  A    between atoms: _88  and  _89
REMARK   39  A    between atoms: _92  and  _94
REMARK   40  A    between atoms: _94  and  _95
REMARK   41  A    between atoms: _94  and  _97
REMARK   42  A    between atoms: _100  and  _102
REMARK   43  A    between atoms: _102  and  _103
REMARK   44  A    between atoms: _102  and  _105
REMARK   45  A    between atoms: _105  and  _106
REMARK   46  A    between atoms: _109  and  _111
REMARK   47  A    between atoms: _111  and  _112
REMARK   48  A    between atoms: _114  and  _116
REMARK   49  A    between atoms: _116  and  _117
REMARK   50  A    between atoms: _119  and  _121
REMARK   51  A    between atoms: _121  and  _122
REMARK   52  A    between atoms: _121  and  _124
REMARK   53  A    between atoms: _124  and  _125
REMARK   54  A    between atoms: _128  and  _130
REMARK   55  A    between atoms: _130  and  _131
REMARK   56  A    between atoms: _133  and  _135
REMARK   57  A    between atoms: _135  and  _136
REMARK   58  A    between atoms: _138  and  _140
REMARK   59  A    between atoms: _140  and  _141
REMARK   60  A    between atoms: _140  and  _143
REMARK   61  A    between atoms: _143  and  _144
REMARK   62  A    between atoms: _150  and  _152
REMARK   63  A    between atoms: _152  and  _153
REMARK   64  A    between atoms: _152  and  _155
REMARK   65  A    between atoms: _155  and  _156
REMARK   66  A    between atoms: _159  and  _161
REMARK   67  A    between atoms: _161  and  _162
REMARK   68  A    between atoms: _161  and  _164
REMARK   69  A    between atoms: _164  and  _165
REMARK   70  A    between atoms: _169  and  _170
REMARK   71  A    between atoms: _175  and  _177
REMARK   72  A    between atoms: _177  and  _178
REMARK   73  A    between atoms: _177  and  _180
REMARK   74  A    between atoms: _183  and  _185
REMARK   75  A    between atoms: _185  and  _186
REMARK   76  A    between atoms: _185  and  _188
REMARK   77  A    between atoms: _188  and  _189
REMARK   78  A    between atoms: _194  and  _196
REMARK   79  A    between atoms: _196  and  _197
REMARK   80  A    between atoms: _196  and  _199
REMARK   81  A    between atoms: _199  and  _200
REMARK   82  A    between atoms: _203  and  _205
REMARK   83  A    between atoms: _205  and  _206
REMARK   84  A    between atoms: _205  and  _208
REMARK   85  A    between atoms: _208  and  _209
REMARK   86  A    between atoms: _212  and  _214
REMARK   87  A    between atoms: _214  and  _215
REMARK   88  A    between atoms: _217  and  _219
REMARK   89  A    between atoms: _219  and  _220
REMARK   90  A    between atoms: _219  and  _222
REMARK   91  A    between atoms: _222  and  _223
REMARK   92  A    between atoms: _223  and  _224
REMARK   93  A    between atoms: _224  and  _225
REMARK   94  A    between atoms: _234  and  _236
REMARK   95  A    between atoms: _236  and  _237
REMARK   96  A    between atoms: _236  and  _239
REMARK   97  A    between atoms: _239  and  _240
REMARK   98  A    between atoms: _240  and  _241
REMARK   99  A    between atoms: _241  and  _242
REMARK  100  A    between atoms: _251  and  _253
REMARK  101  A    between atoms: _253  and  _254
REMARK  102  A    between atoms: _253  and  _256
REMARK  103  A    between atoms: _256  and  _257
REMARK  104  A    between atoms: _260  and  _262
REMARK  105  A    between atoms: _262  and  _263
REMARK  106  A    between atoms: _262  and  _265
REMARK  107  A    between atoms: _265  and  _266
REMARK  108  A    between atoms: _269  and  _271
REMARK  109  A    between atoms: _271  and  _272
REMARK  110  A    between atoms: _271  and  _274
REMARK  111  A    between atoms: _274  and  _275
REMARK  112  A    between atoms: _278  and  _280
REMARK  113  A    between atoms: _280  and  _281
REMARK  114  A    between atoms: _280  and  _283
REMARK  115  A    between atoms: _283  and  _284
REMARK  116  A    between atoms: _287  and  _289
REMARK  117  A    between atoms: _289  and  _290
REMARK  118  A    between atoms: _292  and  _294
REMARK  119  A    between atoms: _294  and  _295
REMARK  120  A    between atoms: _298  and  _300
REMARK  121  A    between atoms: _300  and  _301
REMARK  122  A    between atoms: _300  and  _303
REMARK  123  A    between atoms: _303  and  _304
REMARK  124  A    between atoms: _307  and  _309
REMARK  125  A    between atoms: _309  and  _310
REMARK  126  A    between atoms: _309  and  _312
REMARK  127  A    between atoms: _312  and  _313
REMARK  128  A    between atoms: _316  and  _318
REMARK  129  A    between atoms: _318  and  _319
REMARK  130  A    between atoms: _318  and  _321
REMARK  131  A    between atoms: _321  and  _322
REMARK  132  A    between atoms: _325  and  _327
REMARK  133  A    between atoms: _327  and  _328
REMARK  134  A    between atoms: _327  and  _330
REMARK  135  A    between atoms: _333  and  _335
REMARK  136  A    between atoms: _335  and  _336
REMARK  137  A    between atoms: _335  and  _338
REMARK  138  A    between atoms: _338  and  _339
REMARK  139  A    between atoms: _339  and  _340
REMARK  140  A    between atoms: _340  and  _341
REMARK  141  A    between atoms: _341  and  _342
REMARK  142  A    between atoms: _346  and  _348
REMARK  143  A    between atoms: _348  and  _349
REMARK  144  A    between atoms: _348  and  _351
REMARK  145  A    between atoms: _351  and  _352
REMARK  146  A    between atoms: _352  and  _353
REMARK  147  A    between atoms: _355  and  _357
REMARK  148  A    between atoms: _357  and  _358
REMARK  149  A    between atoms: _357  and  _360
REMARK  150  A    between atoms: _360  and  _361
REMARK  151  A    between atoms: _364  and  _366
REMARK  152  A    between atoms: _366  and  _367
REMARK  153  A    between atoms: _369  and  _371
REMARK  154  A    between atoms: _371  and  _372
REMARK  155  A    between atoms: _374  and  _376
REMARK  156  A    between atoms: _376  and  _377
REMARK  157  A    between atoms: _376  and  _379
REMARK  158  A    between atoms: _379  and  _380
REMARK  159  A    between atoms: _383  and  _385
REMARK  160  A    between atoms: _385  and  _386
REMARK  161  A    between atoms: _388  and  _390
REMARK  162  A    between atoms: _390  and  _391
REMARK  163  A    between atoms: _393  and  _395
REMARK  164  A    between atoms: _395  and  _396
REMARK  165  A    between atoms: _395  and  _398
REMARK  166  A    between atoms: _398  and  _399
REMARK  167  A    between atoms: _405  and  _407
REMARK  168  A    between atoms: _407  and  _408
REMARK  169  A    between atoms: _407  and  _410
REMARK  170  A    between atoms: _410  and  _411
REMARK  171  A    between atoms: _414  and  _416
REMARK  172  A    between atoms: _416  and  _417
REMARK  173  A    between atoms: _416  and  _419
REMARK  174  A    between atoms: _419  and  _420
REMARK  175  A    between atoms: _424  and  _425
REMARK  176  A    between atoms: _430  and  _432
REMARK  177  A    between atoms: _432  and  _433
REMARK  178  A    between atoms: _432  and  _435
REMARK  179  A    between atoms: _435  and  _436
REMARK  180  A    between atoms: _440  and  _441
REMARK  181  A    between atoms: _446  and  _448
REMARK  182  A    between atoms: _448  and  _449
REMARK  183  A    between atoms: _448  and  _451
REMARK  184  A    between atoms: _454  and  _456
REMARK  185  A    between atoms: _456  and  _457
REMARK  186  A    between atoms: _456  and  _459
REMARK  187  A    between atoms: _459  and  _460
REMARK  188  A    between atoms: _465  and  _467
REMARK  189  A    between atoms: _467  and  _468
REMARK  190  A    between atoms: _467  and  _470
REMARK  191  A    between atoms: _470  and  _471
REMARK  192  A    between atoms: _474  and  _476
REMARK  193  A    between atoms: _476  and  _477
REMARK  194  A    between atoms: _476  and  _479
REMARK  195  A    between atoms: _479  and  _480
REMARK  196  A    between atoms: _483  and  _485
REMARK  197  A    between atoms: _485  and  _486
REMARK  198  A    between atoms: _488  and  _490
REMARK  199  A    between atoms: _490  and  _491
REMARK  200  A    between atoms: _490  and  _493
REMARK  201  A    between atoms: _493  and  _494
REMARK  202  A    between atoms: _494  and  _495
REMARK  203  A    between atoms: _495  and  _496
REMARK  204  A    between atoms: _505  and  _507
REMARK  205  A    between atoms: _507  and  _508
REMARK  206  A    between atoms: _507  and  _510
REMARK  207  A    between atoms: _510  and  _511
REMARK                            x       y       z     vdW  Elec       q    Type
REMARK                         _______ _______ _______ _____ _____    ______ ____
ROOT
ATOM      1  O   HOH     1      19.932  32.288  11.648  0.00  0.00    +0.000 OA
ENDROOT
TORSDOF 0
REMARK  Name = ../refined-set-2016/3gi4/3gi4_pocket.pdb
REMARK  207 active torsions:
REMARK  status: ('A' for Active; 'I' for Inactive)
REMARK    1  A    between atoms: _1  and  _3
REMARK    2  A    between atoms: _3  and  _4
REMARK    3  A    between atoms: _3  and  _6
REMARK    4  A    between atoms: _6  and  _7
REMARK    5  A    between atoms: _7  and  _8
REMARK    6  A    between atoms: _8  and  _9
REMARK    7  A    between atoms: _18  and  _20
REMARK    8  A    between atoms: _20  and  _21
REMARK    9  A    between atoms: _20  and  _23
REMARK   10  A    between atoms: _23  and  _24
REMARK   11  A    between atoms: _27  and  _29
REMARK   12  A    between atoms: _29  and  _30
REMARK   13  A    between atoms: _29  and  _32
REMARK   14  A    between atoms: _32  and  _33
REMARK   15  A    between atoms: _36  and  _38
REMARK   16  A    between atoms: _38  and  _39
REMARK   17  A    between atoms: _38  and  _41
REMARK   18  A    between atoms: _41  and  _42
REMARK   19  A    between atoms: _45  and  _47
REMARK   20  A    between atoms: _47  and  _48
REMARK   21  A    between atoms: _47  and  _50
REMARK   22  A    between atoms: _50  and  _51
REMARK   23  A    between atoms: _54  and  _56
REMARK   24  A    between atoms: _56  and  _57
REMARK   25  A    between atoms: _59  and  _61
REMARK   26  A    between atoms: _61  and  _62
REMARK   27  A    between atoms: _65  and  _67
REMARK   28  A    between atoms: _67  and  _68
REMARK   29  A    between atoms: _67  and  _70
REMARK   30  A    between atoms: _70  and  _71
REMARK   31  A    between atoms: _74  and  _76
REMARK   32  A    between atoms: _76  and  _77
REMARK   33  A    between atoms: _76  and  _79
REMARK   34  A    between atoms: _79  and  _80
REMARK   35  A    between atoms: _83  and  _85
REMARK   36  A    between atoms: _85  and  _86
REMARK   37  A    between atoms: _85  and  _88
REMARK   38  A    between atoms: _88  and  _89
REMARK   39  A    between atoms: _92  and  _94
REMARK   40  A    between atoms: _94  and  _95
REMARK   41  A    between atoms: _94  and  _97
REMARK   42  A    between atoms: _100  and  _102
REMARK   43  A    between atoms: _102  and  _103
REMARK   44  A    between atoms: _102  and  _105
REMARK   45  A    between atoms: _105  and  _106
REMARK   46  A    between atoms: _109  and  _111
REMARK   47  A    between atoms: _111  and  _112
REMARK   48  A    between atoms: _114  and  _116
REMARK   49  A    between atoms: _116  and  _117
REMARK   50  A    between atoms: _119  and  _121
REMARK   51  A    between atoms: _121  and  _122
REMARK   52  A    between atoms: _121  and  _124
REMARK   53  A    between atoms: _124  and  _125
REMARK   54  A    between atoms: _128  and  _130
REMARK   55  A    between atoms: _130  and  _131
REMARK   56  A    between atoms: _133  and  _135
REMARK   57  A    between atoms: _135  and  _136
REMARK   58  A    between atoms: _138  and  _140
REMARK   59  A    between atoms: _140  and  _141
REMARK   60  A    between atoms: _140  and  _143
REMARK   61  A    between atoms: _143  and  _144
REMARK   62  A    between atoms: _150  and  _152
REMARK   63  A    between atoms: _152  and  _153
REMARK   64  A    between atoms: _152  and  _155
REMARK   65  A    between atoms: _155  and  _156
REMARK   66  A    between atoms: _159  and  _161
REMARK   67  A    between atoms: _161  and  _162
REMARK   68  A    between atoms: _161  and  _164
REMARK   69  A    between atoms: _164  and  _165
REMARK   70  A    between atoms: _169  and  _170
REMARK   71  A    between atoms: _175  and  _177
REMARK   72  A    between atoms: _177  and  _178
REMARK   73  A    between atoms: _177  and  _180
REMARK   74  A    between atoms: _183  and  _185
REMARK   75  A    between atoms: _185  and  _186
REMARK   76  A    between atoms: _185  and  _188
REMARK   77  A    between atoms: _188  and  _189
REMARK   78  A    between atoms: _194  and  _196
REMARK   79  A    between atoms: _196  and  _197
REMARK   80  A    between atoms: _196  and  _199
REMARK   81  A    between atoms: _199  and  _200
REMARK   82  A    between atoms: _203  and  _205
REMARK   83  A    between atoms: _205  and  _206
REMARK   84  A    between atoms: _205  and  _208
REMARK   85  A    between atoms: _208  and  _209
REMARK   86  A    between atoms: _212  and  _214
REMARK   87  A    between atoms: _214  and  _215
REMARK   88  A    between atoms: _217  and  _219
REMARK   89  A    between atoms: _219  and  _220
REMARK   90  A    between atoms: _219  and  _222
REMARK   91  A    between atoms: _222  and  _223
REMARK   92  A    between atoms: _223  and  _224
REMARK   93  A    between atoms: _224  and  _225
REMARK   94  A    between atoms: _234  and  _236
REMARK   95  A    between atoms: _236  and  _237
REMARK   96  A    between atoms: _236  and  _239
REMARK   97  A    between atoms: _239  and  _240
REMARK   98  A    between atoms: _240  and  _241
REMARK   99  A    between atoms: _241  and  _242
REMARK  100  A    between atoms: _251  and  _253
REMARK  101  A    between atoms: _253  and  _254
REMARK  102  A    between atoms: _253  and  _256
REMARK  103  A    between atoms: _256  and  _257
REMARK  104  A    between atoms: _260  and  _262
REMARK  105  A    between atoms: _262  and  _263
REMARK  106  A    between atoms: _262  and  _265
REMARK  107  A    between atoms: _265  and  _266
REMARK  108  A    between atoms: _269  and  _271
REMARK  109  A    between atoms: _271  and  _272
REMARK  110  A    between atoms: _271  and  _274
REMARK  111  A    between atoms: _274  and  _275
REMARK  112  A    between atoms: _278  and  _280
REMARK  113  A    between atoms: _280  and  _281
REMARK  114  A    between atoms: _280  and  _283
REMARK  115  A    between atoms: _283  and  _284
REMARK  116  A    between atoms: _287  and  _289
REMARK  117  A    between atoms: _289  and  _290
REMARK  118  A    between atoms: _292  and  _294
REMARK  119  A    between atoms: _294  and  _295
REMARK  120  A    between atoms: _298  and  _300
REMARK  121  A    between atoms: _300  and  _301
REMARK  122  A    between atoms: _300  and  _303
REMARK  123  A    between atoms: _303  and  _304
REMARK  124  A    between atoms: _307  and  _309
REMARK  125  A    between atoms: _309  and  _310
REMARK  126  A    between atoms: _309  and  _312
REMARK  127  A    between atoms: _312  and  _313
REMARK  128  A    between atoms: _316  and  _318
REMARK  129  A    between atoms: _318  and  _319
REMARK  130  A    between atoms: _318  and  _321
REMARK  131  A    between atoms: _321  and  _322
REMARK  132  A    between atoms: _325  and  _327
REMARK  133  A    between atoms: _327  and  _328
REMARK  134  A    between atoms: _327  and  _330
REMARK  135  A    between atoms: _333  and  _335
REMARK  136  A    between atoms: _335  and  _336
REMARK  137  A    between atoms: _335  and  _338
REMARK  138  A    between atoms: _338  and  _339
REMARK  139  A    between atoms: _339  and  _340
REMARK  140  A    between atoms: _340  and  _341
REMARK  141  A    between atoms: _341  and  _342
REMARK  142  A    between atoms: _346  and  _348
REMARK  143  A    between atoms: _348  and  _349
REMARK  144  A    between atoms: _348  and  _351
REMARK  145  A    between atoms: _351  and  _352
REMARK  146  A    between atoms: _352  and  _353
REMARK  147  A    between atoms: _355  and  _357
REMARK  148  A    between atoms: _357  and  _358
REMARK  149  A    between atoms: _357  and  _360
REMARK  150  A    between atoms: _360  and  _361
REMARK  151  A    between atoms: _364  and  _366
REMARK  152  A    between atoms: _366  and  _367
REMARK  153  A    between atoms: _369  and  _371
REMARK  154  A    between atoms: _371  and  _372
REMARK  155  A    between atoms: _374  and  _376
REMARK  156  A    between atoms: _376  and  _377
REMARK  157  A    between atoms: _376  and  _379
REMARK  158  A    between atoms: _379  and  _380
REMARK  159  A    between atoms: _383  and  _385
REMARK  160  A    between atoms: _385  and  _386
REMARK  161  A    between atoms: _388  and  _390
REMARK  162  A    between atoms: _390  and  _391
REMARK  163  A    between atoms: _393  and  _395
REMARK  164  A    between atoms: _395  and  _396
REMARK  165  A    between atoms: _395  and  _398
REMARK  166  A    between atoms: _398  and  _399
REMARK  167  A    between atoms: _405  and  _407
REMARK  168  A    between atoms: _407  and  _408
REMARK  169  A    between atoms: _407  and  _410
REMARK  170  A    between atoms: _410  and  _411
REMARK  171  A    between atoms: _414  and  _416
REMARK  172  A    between atoms: _416  and  _417
REMARK  173  A    between atoms: _416  and  _419
REMARK  174  A    between atoms: _419  and  _420
REMARK  175  A    between atoms: _424  and  _425
REMARK  176  A    between atoms: _430  and  _432
REMARK  177  A    between atoms: _432  and  _433
REMARK  178  A    between atoms: _432  and  _435
REMARK  179  A    between atoms: _435  and  _436
REMARK  180  A    between atoms: _440  and  _441
REMARK  181  A    between atoms: _446  and  _448
REMARK  182  A    between atoms: _448  and  _449
REMARK  183  A    between atoms: _448  and  _451
REMARK  184  A    between atoms: _454  and  _456
REMARK  185  A    between atoms: _456  and  _457
REMARK  186  A    between atoms: _456  and  _459
REMARK  187  A    between atoms: _459  and  _460
REMARK  188  A    between atoms: _465  and  _467
REMARK  189  A    between atoms: _467  and  _468
REMARK  190  A    between atoms: _467  and  _470
REMARK  191  A    between atoms: _470  and  _471
REMARK  192  A    between atoms: _474  and  _476
REMARK  193  A    between atoms: _476  and  _477
REMARK  194  A    between atoms: _476  and  _479
REMARK  195  A    between atoms: _479  and  _480
REMARK  196  A    between atoms: _483  and  _485
REMARK  197  A    between atoms: _485  and  _486
REMARK  198  A    between atoms: _488  and  _490
REMARK  199  A    between atoms: _490  and  _491
REMARK  200  A    between atoms: _490  and  _493
REMARK  201  A    between atoms: _493  and  _494
REMARK  202  A    between atoms: _494  and  _495
REMARK  203  A    between atoms: _495  and  _496
REMARK  204  A    between atoms: _505  and  _507
REMARK  205  A    between atoms: _507  and  _508
REMARK  206  A    between atoms: _507  and  _510
REMARK  207  A    between atoms: _510  and  _511
REMARK                            x       y       z     vdW  Elec       q    Type
REMARK                         _______ _______ _______ _____ _____    ______ ____
ROOT
ATOM      1  O   HOH     1      24.979  26.193  12.066  0.00  0.00    +0.000 OA
ENDROOT
TORSDOF 0
REMARK  Name = ../refined-set-2016/3gi4/3gi4_pocket.pdb
REMARK  207 active torsions:
REMARK  status: ('A' for Active; 'I' for Inactive)
REMARK    1  A    between atoms: _1  and  _3
REMARK    2  A    between atoms: _3  and  _4
REMARK    3  A    between atoms: _3  and  _6
REMARK    4  A    between atoms: _6  and  _7
REMARK    5  A    between atoms: _7  and  _8
REMARK    6  A    between atoms: _8  and  _9
REMARK    7  A    between atoms: _18  and  _20
REMARK    8  A    between atoms: _20  and  _21
REMARK    9  A    between atoms: _20  and  _23
REMARK   10  A    between atoms: _23  and  _24
REMARK   11  A    between atoms: _27  and  _29
REMARK   12  A    between atoms: _29  and  _30
REMARK   13  A    between atoms: _29  and  _32
REMARK   14  A    between atoms: _32  and  _33
REMARK   15  A    between atoms: _36  and  _38
REMARK   16  A    between atoms: _38  and  _39
REMARK   17  A    between atoms: _38  and  _41
REMARK   18  A    between atoms: _41  and  _42
REMARK   19  A    between atoms: _45  and  _47
REMARK   20  A    between atoms: _47  and  _48
REMARK   21  A    between atoms: _47  and  _50
REMARK   22  A    between atoms: _50  and  _51
REMARK   23  A    between atoms: _54  and  _56
REMARK   24  A    between atoms: _56  and  _57
REMARK   25  A    between atoms: _59  and  _61
REMARK   26  A    between atoms: _61  and  _62
REMARK   27  A    between atoms: _65  and  _67
REMARK   28  A    between atoms: _67  and  _68
REMARK   29  A    between atoms: _67  and  _70
REMARK   30  A    between atoms: _70  and  _71
REMARK   31  A    between atoms: _74  and  _76
REMARK   32  A    between atoms: _76  and  _77
REMARK   33  A    between atoms: _76  and  _79
REMARK   34  A    between atoms: _79  and  _80
REMARK   35  A    between atoms: _83  and  _85
REMARK   36  A    between atoms: _85  and  _86
REMARK   37  A    between atoms: _85  and  _88
REMARK   38  A    between atoms: _88  and  _89
REMARK   39  A    between atoms: _92  and  _94
REMARK   40  A    between atoms: _94  and  _95
REMARK   41  A    between atoms: _94  and  _97
REMARK   42  A    between atoms: _100  and  _102
REMARK   43  A    between atoms: _102  and  _103
REMARK   44  A    between atoms: _102  and  _105
REMARK   45  A    between atoms: _105  and  _106
REMARK   46  A    between atoms: _109  and  _111
REMARK   47  A    between atoms: _111  and  _112
REMARK   48  A    between atoms: _114  and  _116
REMARK   49  A    between atoms: _116  and  _117
REMARK   50  A    between atoms: _119  and  _121
REMARK   51  A    between atoms: _121  and  _122
REMARK   52  A    between atoms: _121  and  _124
REMARK   53  A    between atoms: _124  and  _125
REMARK   54  A    between atoms: _128  and  _130
REMARK   55  A    between atoms: _130  and  _131
REMARK   56  A    between atoms: _133  and  _135
REMARK   57  A    between atoms: _135  and  _136
REMARK   58  A    between atoms: _138  and  _140
REMARK   59  A    between atoms: _140  and  _141
REMARK   60  A    between atoms: _140  and  _143
REMARK   61  A    between atoms: _143  and  _144
REMARK   62  A    between atoms: _150  and  _152
REMARK   63  A    between atoms: _152  and  _153
REMARK   64  A    between atoms: _152  and  _155
REMARK   65  A    between atoms: _155  and  _156
REMARK   66  A    between atoms: _159  and  _161
REMARK   67  A    between atoms: _161  and  _162
REMARK   68  A    between atoms: _161  and  _164
REMARK   69  A    between atoms: _164  and  _165
REMARK   70  A    between atoms: _169  and  _170
REMARK   71  A    between atoms: _175  and  _177
REMARK   72  A    between atoms: _177  and  _178
REMARK   73  A    between atoms: _177  and  _180
REMARK   74  A    between atoms: _183  and  _185
REMARK   75  A    between atoms: _185  and  _186
REMARK   76  A    between atoms: _185  and  _188
REMARK   77  A    between atoms: _188  and  _189
REMARK   78  A    between atoms: _194  and  _196
REMARK   79  A    between atoms: _196  and  _197
REMARK   80  A    between atoms: _196  and  _199
REMARK   81  A    between atoms: _199  and  _200
REMARK   82  A    between atoms: _203  and  _205
REMARK   83  A    between atoms: _205  and  _206
REMARK   84  A    between atoms: _205  and  _208
REMARK   85  A    between atoms: _208  and  _209
REMARK   86  A    between atoms: _212  and  _214
REMARK   87  A    between atoms: _214  and  _215
REMARK   88  A    between atoms: _217  and  _219
REMARK   89  A    between atoms: _219  and  _220
REMARK   90  A    between atoms: _219  and  _222
REMARK   91  A    between atoms: _222  and  _223
REMARK   92  A    between atoms: _223  and  _224
REMARK   93  A    between atoms: _224  and  _225
REMARK   94  A    between atoms: _234  and  _236
REMARK   95  A    between atoms: _236  and  _237
REMARK   96  A    between atoms: _236  and  _239
REMARK   97  A    between atoms: _239  and  _240
REMARK   98  A    between atoms: _240  and  _241
REMARK   99  A    between atoms: _241  and  _242
REMARK  100  A    between atoms: _251  and  _253
REMARK  101  A    between atoms: _253  and  _254
REMARK  102  A    between atoms: _253  and  _256
REMARK  103  A    between atoms: _256  and  _257
REMARK  104  A    between atoms: _260  and  _262
REMARK  105  A    between atoms: _262  and  _263
REMARK  106  A    between atoms: _262  and  _265
REMARK  107  A    between atoms: _265  and  _266
REMARK  108  A    between atoms: _269  and  _271
REMARK  109  A    between atoms: _271  and  _272
REMARK  110  A    between atoms: _271  and  _274
REMARK  111  A    between atoms: _274  and  _275
REMARK  112  A    between atoms: _278  and  _280
REMARK  113  A    between atoms: _280  and  _281
REMARK  114  A    between atoms: _280  and  _283
REMARK  115  A    between atoms: _283  and  _284
REMARK  116  A    between atoms: _287  and  _289
REMARK  117  A    between atoms: _289  and  _290
REMARK  118  A    between atoms: _292  and  _294
REMARK  119  A    between atoms: _294  and  _295
REMARK  120  A    between atoms: _298  and  _300
REMARK  121  A    between atoms: _300  and  _301
REMARK  122  A    between atoms: _300  and  _303
REMARK  123  A    between atoms: _303  and  _304
REMARK  124  A    between atoms: _307  and  _309
REMARK  125  A    between atoms: _309  and  _310
REMARK  126  A    between atoms: _309  and  _312
REMARK  127  A    between atoms: _312  and  _313
REMARK  128  A    between atoms: _316  and  _318
REMARK  129  A    between atoms: _318  and  _319
REMARK  130  A    between atoms: _318  and  _321
REMARK  131  A    between atoms: _321  and  _322
REMARK  132  A    between atoms: _325  and  _327
REMARK  133  A    between atoms: _327  and  _328
REMARK  134  A    between atoms: _327  and  _330
REMARK  135  A    between atoms: _333  and  _335
REMARK  136  A    between atoms: _335  and  _336
REMARK  137  A    between atoms: _335  and  _338
REMARK  138  A    between atoms: _338  and  _339
REMARK  139  A    between atoms: _339  and  _340
REMARK  140  A    between atoms: _340  and  _341
REMARK  141  A    between atoms: _341  and  _342
REMARK  142  A    between atoms: _346  and  _348
REMARK  143  A    between atoms: _348  and  _349
REMARK  144  A    between atoms: _348  and  _351
REMARK  145  A    between atoms: _351  and  _352
REMARK  146  A    between atoms: _352  and  _353
REMARK  147  A    between atoms: _355  and  _357
REMARK  148  A    between atoms: _357  and  _358
REMARK  149  A    between atoms: _357  and  _360
REMARK  150  A    between atoms: _360  and  _361
REMARK  151  A    between atoms: _364  and  _366
REMARK  152  A    between atoms: _366  and  _367
REMARK  153  A    between atoms: _369  and  _371
REMARK  154  A    between atoms: _371  and  _372
REMARK  155  A    between atoms: _374  and  _376
REMARK  156  A    between atoms: _376  and  _377
REMARK  157  A    between atoms: _376  and  _379
REMARK  158  A    between atoms: _379  and  _380
REMARK  159  A    between atoms: _383  and  _385
REMARK  160  A    between atoms: _385  and  _386
REMARK  161  A    between atoms: _388  and  _390
REMARK  162  A    between atoms: _390  and  _391
REMARK  163  A    between atoms: _393  and  _395
REMARK  164  A    between atoms: _395  and  _396
REMARK  165  A    between atoms: _395  and  _398
REMARK  166  A    between atoms: _398  and  _399
REMARK  167  A    between atoms: _405  and  _407
REMARK  168  A    between atoms: _407  and  _408
REMARK  169  A    between atoms: _407  and  _410
REMARK  170  A    between atoms: _410  and  _411
REMARK  171  A    between atoms: _414  and  _416
REMARK  172  A    between atoms: _416  and  _417
REMARK  173  A    between atoms: _416  and  _419
REMARK  174  A    between atoms: _419  and  _420
REMARK  175  A    between atoms: _424  and  _425
REMARK  176  A    between atoms: _430  and  _432
REMARK  177  A    between atoms: _432  and  _433
REMARK  178  A    between atoms: _432  and  _435
REMARK  179  A    between atoms: _435  and  _436
REMARK  180  A    between atoms: _440  and  _441
REMARK  181  A    between atoms: _446  and  _448
REMARK  182  A    between atoms: _448  and  _449
REMARK  183  A    between atoms: _448  and  _451
REMARK  184  A    between atoms: _454  and  _456
REMARK  185  A    between atoms: _456  and  _457
REMARK  186  A    between atoms: _456  and  _459
REMARK  187  A    between atoms: _459  and  _460
REMARK  188  A    between atoms: _465  and  _467
REMARK  189  A    between atoms: _467  and  _468
REMARK  190  A    between atoms: _467  and  _470
REMARK  191  A    between atoms: _470  and  _471
REMARK  192  A    between atoms: _474  and  _476
REMARK  193  A    between atoms: _476  and  _477
REMARK  194  A    between atoms: _476  and  _479
REMARK  195  A    between atoms: _479  and  _480
REMARK  196  A    between atoms: _483  and  _485
REMARK  197  A    between atoms: _485  and  _486
REMARK  198  A    between atoms: _488  and  _490
REMARK  199  A    between atoms: _490  and  _491
REMARK  200  A    between atoms: _490  and  _493
REMARK  201  A    between atoms: _493  and  _494
REMARK  202  A    between atoms: _494  and  _495
REMARK  203  A    between atoms: _495  and  _496
REMARK  204  A    between atoms: _505  and  _507
REMARK  205  A    between atoms: _507  and  _508
REMARK  206  A    between atoms: _507  and  _510
REMARK  207  A    between atoms: _510  and  _511
REMARK                            x       y       z     vdW  Elec       q    Type
REMARK                         _______ _______ _______ _____ _____    ______ ____
ROOT
ATOM      1  O   HOH     1      19.724  36.468  18.224  0.00  0.00    +0.000 OA
ENDROOT
TORSDOF 0
REMARK  Name = ../refined-set-2016/3gi4/3gi4_pocket.pdb
REMARK  207 active torsions:
REMARK  status: ('A' for Active; 'I' for Inactive)
REMARK    1  A    between atoms: _1  and  _3
REMARK    2  A    between atoms: _3  and  _4
REMARK    3  A    between atoms: _3  and  _6
REMARK    4  A    between atoms: _6  and  _7
REMARK    5  A    between atoms: _7  and  _8
REMARK    6  A    between atoms: _8  and  _9
REMARK    7  A    between atoms: _18  and  _20
REMARK    8  A    between atoms: _20  and  _21
REMARK    9  A    between atoms: _20  and  _23
REMARK   10  A    between atoms: _23  and  _24
REMARK   11  A    between atoms: _27  and  _29
REMARK   12  A    between atoms: _29  and  _30
REMARK   13  A    between atoms: _29  and  _32
REMARK   14  A    between atoms: _32  and  _33
REMARK   15  A    between atoms: _36  and  _38
REMARK   16  A    between atoms: _38  and  _39
REMARK   17  A    between atoms: _38  and  _41
REMARK   18  A    between atoms: _41  and  _42
REMARK   19  A    between atoms: _45  and  _47
REMARK   20  A    between atoms: _47  and  _48
REMARK   21  A    between atoms: _47  and  _50
REMARK   22  A    between atoms: _50  and  _51
REMARK   23  A    between atoms: _54  and  _56
REMARK   24  A    between atoms: _56  and  _57
REMARK   25  A    between atoms: _59  and  _61
REMARK   26  A    between atoms: _61  and  _62
REMARK   27  A    between atoms: _65  and  _67
REMARK   28  A    between atoms: _67  and  _68
REMARK   29  A    between atoms: _67  and  _70
REMARK   30  A    between atoms: _70  and  _71
REMARK   31  A    between atoms: _74  and  _76
REMARK   32  A    between atoms: _76  and  _77
REMARK   33  A    between atoms: _76  and  _79
REMARK   34  A    between atoms: _79  and  _80
REMARK   35  A    between atoms: _83  and  _85
REMARK   36  A    between atoms: _85  and  _86
REMARK   37  A    between atoms: _85  and  _88
REMARK   38  A    between atoms: _88  and  _89
REMARK   39  A    between atoms: _92  and  _94
REMARK   40  A    between atoms: _94  and  _95
REMARK   41  A    between atoms: _94  and  _97
REMARK   42  A    between atoms: _100  and  _102
REMARK   43  A    between atoms: _102  and  _103
REMARK   44  A    between atoms: _102  and  _105
REMARK   45  A    between atoms: _105  and  _106
REMARK   46  A    between atoms: _109  and  _111
REMARK   47  A    between atoms: _111  and  _112
REMARK   48  A    between atoms: _114  and  _116
REMARK   49  A    between atoms: _116  and  _117
REMARK   50  A    between atoms: _119  and  _121
REMARK   51  A    between atoms: _121  and  _122
REMARK   52  A    between atoms: _121  and  _124
REMARK   53  A    between atoms: _124  and  _125
REMARK   54  A    between atoms: _128  and  _130
REMARK   55  A    between atoms: _130  and  _131
REMARK   56  A    between atoms: _133  and  _135
REMARK   57  A    between atoms: _135  and  _136
REMARK   58  A    between atoms: _138  and  _140
REMARK   59  A    between atoms: _140  and  _141
REMARK   60  A    between atoms: _140  and  _143
REMARK   61  A    between atoms: _143  and  _144
REMARK   62  A    between atoms: _150  and  _152
REMARK   63  A    between atoms: _152  and  _153
REMARK   64  A    between atoms: _152  and  _155
REMARK   65  A    between atoms: _155  and  _156
REMARK   66  A    between atoms: _159  and  _161
REMARK   67  A    between atoms: _161  and  _162
REMARK   68  A    between atoms: _161  and  _164
REMARK   69  A    between atoms: _164  and  _165
REMARK   70  A    between atoms: _169  and  _170
REMARK   71  A    between atoms: _175  and  _177
REMARK   72  A    between atoms: _177  and  _178
REMARK   73  A    between atoms: _177  and  _180
REMARK   74  A    between atoms: _183  and  _185
REMARK   75  A    between atoms: _185  and  _186
REMARK   76  A    between atoms: _185  and  _188
REMARK   77  A    between atoms: _188  and  _189
REMARK   78  A    between atoms: _194  and  _196
REMARK   79  A    between atoms: _196  and  _197
REMARK   80  A    between atoms: _196  and  _199
REMARK   81  A    between atoms: _199  and  _200
REMARK   82  A    between atoms: _203  and  _205
REMARK   83  A    between atoms: _205  and  _206
REMARK   84  A    between atoms: _205  and  _208
REMARK   85  A    between atoms: _208  and  _209
REMARK   86  A    between atoms: _212  and  _214
REMARK   87  A    between atoms: _214  and  _215
REMARK   88  A    between atoms: _217  and  _219
REMARK   89  A    between atoms: _219  and  _220
REMARK   90  A    between atoms: _219  and  _222
REMARK   91  A    between atoms: _222  and  _223
REMARK   92  A    between atoms: _223  and  _224
REMARK   93  A    between atoms: _224  and  _225
REMARK   94  A    between atoms: _234  and  _236
REMARK   95  A    between atoms: _236  and  _237
REMARK   96  A    between atoms: _236  and  _239
REMARK   97  A    between atoms: _239  and  _240
REMARK   98  A    between atoms: _240  and  _241
REMARK   99  A    between atoms: _241  and  _242
REMARK  100  A    between atoms: _251  and  _253
REMARK  101  A    between atoms: _253  and  _254
REMARK  102  A    between atoms: _253  and  _256
REMARK  103  A    between atoms: _256  and  _257
REMARK  104  A    between atoms: _260  and  _262
REMARK  105  A    between atoms: _262  and  _263
REMARK  106  A    between atoms: _262  and  _265
REMARK  107  A    between atoms: _265  and  _266
REMARK  108  A    between atoms: _269  and  _271
REMARK  109  A    between atoms: _271  and  _272
REMARK  110  A    between atoms: _271  and  _274
REMARK  111  A    between atoms: _274  and  _275
REMARK  112  A    between atoms: _278  and  _280
REMARK  113  A    between atoms: _280  and  _281
REMARK  114  A    between atoms: _280  and  _283
REMARK  115  A    between atoms: _283  and  _284
REMARK  116  A    between atoms: _287  and  _289
REMARK  117  A    between atoms: _289  and  _290
REMARK  118  A    between atoms: _292  and  _294
REMARK  119  A    between atoms: _294  and  _295
REMARK  120  A    between atoms: _298  and  _300
REMARK  121  A    between atoms: _300  and  _301
REMARK  122  A    between atoms: _300  and  _303
REMARK  123  A    between atoms: _303  and  _304
REMARK  124  A    between atoms: _307  and  _309
REMARK  125  A    between atoms: _309  and  _310
REMARK  126  A    between atoms: _309  and  _312
REMARK  127  A    between atoms: _312  and  _313
REMARK  128  A    between atoms: _316  and  _318
REMARK  129  A    between atoms: _318  and  _319
REMARK  130  A    between atoms: _318  and  _321
REMARK  131  A    between atoms: _321  and  _322
REMARK  132  A    between atoms: _325  and  _327
REMARK  133  A    between atoms: _327  and  _328
REMARK  134  A    between atoms: _327  and  _330
REMARK  135  A    between atoms: _333  and  _335
REMARK  136  A    between atoms: _335  and  _336
REMARK  137  A    between atoms: _335  and  _338
REMARK  138  A    between atoms: _338  and  _339
REMARK  139  A    between atoms: _339  and  _340
REMARK  140  A    between atoms: _340  and  _341
REMARK  141  A    between atoms: _341  and  _342
REMARK  142  A    between atoms: _346  and  _348
REMARK  143  A    between atoms: _348  and  _349
REMARK  144  A    between atoms: _348  and  _351
REMARK  145  A    between atoms: _351  and  _352
REMARK  146  A    between atoms: _352  and  _353
REMARK  147  A    between atoms: _355  and  _357
REMARK  148  A    between atoms: _357  and  _358
REMARK  149  A    between atoms: _357  and  _360
REMARK  150  A    between atoms: _360  and  _361
REMARK  151  A    between atoms: _364  and  _366
REMARK  152  A    between atoms: _366  and  _367
REMARK  153  A    between atoms: _369  and  _371
REMARK  154  A    between atoms: _371  and  _372
REMARK  155  A    between atoms: _374  and  _376
REMARK  156  A    between atoms: _376  and  _377
REMARK  157  A    between atoms: _376  and  _379
REMARK  158  A    between atoms: _379  and  _380
REMARK  159  A    between atoms: _383  and  _385
REMARK  160  A    between atoms: _385  and  _386
REMARK  161  A    between atoms: _388  and  _390
REMARK  162  A    between atoms: _390  and  _391
REMARK  163  A    between atoms: _393  and  _395
REMARK  164  A    between atoms: _395  and  _396
REMARK  165  A    between atoms: _395  and  _398
REMARK  166  A    between atoms: _398  and  _399
REMARK  167  A    between atoms: _405  and  _407
REMARK  168  A    between atoms: _407  and  _408
REMARK  169  A    between atoms: _407  and  _410
REMARK  170  A    between atoms: _410  and  _411
REMARK  171  A    between atoms: _414  and  _416
REMARK  172  A    between atoms: _416  and  _417
REMARK  173  A    between atoms: _416  and  _419
REMARK  174  A    between atoms: _419  and  _420
REMARK  175  A    between atoms: _424  and  _425
REMARK  176  A    between atoms: _430  and  _432
REMARK  177  A    between atoms: _432  and  _433
REMARK  178  A    between atoms: _432  and  _435
REMARK  179  A    between atoms: _435  and  _436
REMARK  180  A    between atoms: _440  and  _441
REMARK  181  A    between atoms: _446  and  _448
REMARK  182  A    between atoms: _448  and  _449
REMARK  183  A    between atoms: _448  and  _451
REMARK  184  A    between atoms: _454  and  _456
REMARK  185  A    between atoms: _456  and  _457
REMARK  186  A    between atoms: _456  and  _459
REMARK  187  A    between atoms: _459  and  _460
REMARK  188  A    between atoms: _465  and  _467
REMARK  189  A    between atoms: _467  and  _468
REMARK  190  A    between atoms: _467  and  _470
REMARK  191  A    between atoms: _470  and  _471
REMARK  192  A    between atoms: _474  and  _476
REMARK  193  A    between atoms: _476  and  _477
REMARK  194  A    between atoms: _476  and  _479
REMARK  195  A    between atoms: _479  and  _480
REMARK  196  A    between atoms: _483  and  _485
REMARK  197  A    between atoms: _485  and  _486
REMARK  198  A    between atoms: _488  and  _490
REMARK  199  A    between atoms: _490  and  _491
REMARK  200  A    between atoms: _490  and  _493
REMARK  201  A    between atoms: _493  and  _494
REMARK  202  A    between atoms: _494  and  _495
REMARK  203  A    between atoms: _495  and  _496
REMARK  204  A    between atoms: _505  and  _507
REMARK  205  A    between atoms: _507  and  _508
REMARK  206  A    between atoms: _507  and  _510
REMARK  207  A    between atoms: _510  and  _511
REMARK                            x       y       z     vdW  Elec       q    Type
REMARK                         _______ _______ _______ _____ _____    ______ ____
ROOT
ATOM      1  O   HOH     1      26.282  18.833  13.113  0.00  0.00    +0.000 OA
ENDROOT
TORSDOF 0
REMARK  Name = ../refined-set-2016/3gi4/3gi4_pocket.pdb
REMARK  207 active torsions:
REMARK  status: ('A' for Active; 'I' for Inactive)
REMARK    1  A    between atoms: _1  and  _3
REMARK    2  A    between atoms: _3  and  _4
REMARK    3  A    between atoms: _3  and  _6
REMARK    4  A    between atoms: _6  and  _7
REMARK    5  A    between atoms: _7  and  _8
REMARK    6  A    between atoms: _8  and  _9
REMARK    7  A    between atoms: _18  and  _20
REMARK    8  A    between atoms: _20  and  _21
REMARK    9  A    between atoms: _20  and  _23
REMARK   10  A    between atoms: _23  and  _24
REMARK   11  A    between atoms: _27  and  _29
REMARK   12  A    between atoms: _29  and  _30
REMARK   13  A    between atoms: _29  and  _32
REMARK   14  A    between atoms: _32  and  _33
REMARK   15  A    between atoms: _36  and  _38
REMARK   16  A    between atoms: _38  and  _39
REMARK   17  A    between atoms: _38  and  _41
REMARK   18  A    between atoms: _41  and  _42
REMARK   19  A    between atoms: _45  and  _47
REMARK   20  A    between atoms: _47  and  _48
REMARK   21  A    between atoms: _47  and  _50
REMARK   22  A    between atoms: _50  and  _51
REMARK   23  A    between atoms: _54  and  _56
REMARK   24  A    between atoms: _56  and  _57
REMARK   25  A    between atoms: _59  and  _61
REMARK   26  A    between atoms: _61  and  _62
REMARK   27  A    between atoms: _65  and  _67
REMARK   28  A    between atoms: _67  and  _68
REMARK   29  A    between atoms: _67  and  _70
REMARK   30  A    between atoms: _70  and  _71
REMARK   31  A    between atoms: _74  and  _76
REMARK   32  A    between atoms: _76  and  _77
REMARK   33  A    between atoms: _76  and  _79
REMARK   34  A    between atoms: _79  and  _80
REMARK   35  A    between atoms: _83  and  _85
REMARK   36  A    between atoms: _85  and  _86
REMARK   37  A    between atoms: _85  and  _88
REMARK   38  A    between atoms: _88  and  _89
REMARK   39  A    between atoms: _92  and  _94
REMARK   40  A    between atoms: _94  and  _95
REMARK   41  A    between atoms: _94  and  _97
REMARK   42  A    between atoms: _100  and  _102
REMARK   43  A    between atoms: _102  and  _103
REMARK   44  A    between atoms: _102  and  _105
REMARK   45  A    between atoms: _105  and  _106
REMARK   46  A    between atoms: _109  and  _111
REMARK   47  A    between atoms: _111  and  _112
REMARK   48  A    between atoms: _114  and  _116
REMARK   49  A    between atoms: _116  and  _117
REMARK   50  A    between atoms: _119  and  _121
REMARK   51  A    between atoms: _121  and  _122
REMARK   52  A    between atoms: _121  and  _124
REMARK   53  A    between atoms: _124  and  _125
REMARK   54  A    between atoms: _128  and  _130
REMARK   55  A    between atoms: _130  and  _131
REMARK   56  A    between atoms: _133  and  _135
REMARK   57  A    between atoms: _135  and  _136
REMARK   58  A    between atoms: _138  and  _140
REMARK   59  A    between atoms: _140  and  _141
REMARK   60  A    between atoms: _140  and  _143
REMARK   61  A    between atoms: _143  and  _144
REMARK   62  A    between atoms: _150  and  _152
REMARK   63  A    between atoms: _152  and  _153
REMARK   64  A    between atoms: _152  and  _155
REMARK   65  A    between atoms: _155  and  _156
REMARK   66  A    between atoms: _159  and  _161
REMARK   67  A    between atoms: _161  and  _162
REMARK   68  A    between atoms: _161  and  _164
REMARK   69  A    between atoms: _164  and  _165
REMARK   70  A    between atoms: _169  and  _170
REMARK   71  A    between atoms: _175  and  _177
REMARK   72  A    between atoms: _177  and  _178
REMARK   73  A    between atoms: _177  and  _180
REMARK   74  A    between atoms: _183  and  _185
REMARK   75  A    between atoms: _185  and  _186
REMARK   76  A    between atoms: _185  and  _188
REMARK   77  A    between atoms: _188  and  _189
REMARK   78  A    between atoms: _194  and  _196
REMARK   79  A    between atoms: _196  and  _197
REMARK   80  A    between atoms: _196  and  _199
REMARK   81  A    between atoms: _199  and  _200
REMARK   82  A    between atoms: _203  and  _205
REMARK   83  A    between atoms: _205  and  _206
REMARK   84  A    between atoms: _205  and  _208
REMARK   85  A    between atoms: _208  and  _209
REMARK   86  A    between atoms: _212  and  _214
REMARK   87  A    between atoms: _214  and  _215
REMARK   88  A    between atoms: _217  and  _219
REMARK   89  A    between atoms: _219  and  _220
REMARK   90  A    between atoms: _219  and  _222
REMARK   91  A    between atoms: _222  and  _223
REMARK   92  A    between atoms: _223  and  _224
REMARK   93  A    between atoms: _224  and  _225
REMARK   94  A    between atoms: _234  and  _236
REMARK   95  A    between atoms: _236  and  _237
REMARK   96  A    between atoms: _236  and  _239
REMARK   97  A    between atoms: _239  and  _240
REMARK   98  A    between atoms: _240  and  _241
REMARK   99  A    between atoms: _241  and  _242
REMARK  100  A    between atoms: _251  and  _253
REMARK  101  A    between atoms: _253  and  _254
REMARK  102  A    between atoms: _253  and  _256
REMARK  103  A    between atoms: _256  and  _257
REMARK  104  A    between atoms: _260  and  _262
REMARK  105  A    between atoms: _262  and  _263
REMARK  106  A    between atoms: _262  and  _265
REMARK  107  A    between atoms: _265  and  _266
REMARK  108  A    between atoms: _269  and  _271
REMARK  109  A    between atoms: _271  and  _272
REMARK  110  A    between atoms: _271  and  _274
REMARK  111  A    between atoms: _274  and  _275
REMARK  112  A    between atoms: _278  and  _280
REMARK  113  A    between atoms: _280  and  _281
REMARK  114  A    between atoms: _280  and  _283
REMARK  115  A    between atoms: _283  and  _284
REMARK  116  A    between atoms: _287  and  _289
REMARK  117  A    between atoms: _289  and  _290
REMARK  118  A    between atoms: _292  and  _294
REMARK  119  A    between atoms: _294  and  _295
REMARK  120  A    between atoms: _298  and  _300
REMARK  121  A    between atoms: _300  and  _301
REMARK  122  A    between atoms: _300  and  _303
REMARK  123  A    between atoms: _303  and  _304
REMARK  124  A    between atoms: _307  and  _309
REMARK  125  A    between atoms: _309  and  _310
REMARK  126  A    between atoms: _309  and  _312
REMARK  127  A    between atoms: _312  and  _313
REMARK  128  A    between atoms: _316  and  _318
REMARK  129  A    between atoms: _318  and  _319
REMARK  130  A    between atoms: _318  and  _321
REMARK  131  A    between atoms: _321  and  _322
REMARK  132  A    between atoms: _325  and  _327
REMARK  133  A    between atoms: _327  and  _328
REMARK  134  A    between atoms: _327  and  _330
REMARK  135  A    between atoms: _333  and  _335
REMARK  136  A    between atoms: _335  and  _336
REMARK  137  A    between atoms: _335  and  _338
REMARK  138  A    between atoms: _338  and  _339
REMARK  139  A    between atoms: _339  and  _340
REMARK  140  A    between atoms: _340  and  _341
REMARK  141  A    between atoms: _341  and  _342
REMARK  142  A    between atoms: _346  and  _348
REMARK  143  A    between atoms: _348  and  _349
REMARK  144  A    between atoms: _348  and  _351
REMARK  145  A    between atoms: _351  and  _352
REMARK  146  A    between atoms: _352  and  _353
REMARK  147  A    between atoms: _355  and  _357
REMARK  148  A    between atoms: _357  and  _358
REMARK  149  A    between atoms: _357  and  _360
REMARK  150  A    between atoms: _360  and  _361
REMARK  151  A    between atoms: _364  and  _366
REMARK  152  A    between atoms: _366  and  _367
REMARK  153  A    between atoms: _369  and  _371
REMARK  154  A    between atoms: _371  and  _372
REMARK  155  A    between atoms: _374  and  _376
REMARK  156  A    between atoms: _376  and  _377
REMARK  157  A    between atoms: _376  and  _379
REMARK  158  A    between atoms: _379  and  _380
REMARK  159  A    between atoms: _383  and  _385
REMARK  160  A    between atoms: _385  and  _386
REMARK  161  A    between atoms: _388  and  _390
REMARK  162  A    between atoms: _390  and  _391
REMARK  163  A    between atoms: _393  and  _395
REMARK  164  A    between atoms: _395  and  _396
REMARK  165  A    between atoms: _395  and  _398
REMARK  166  A    between atoms: _398  and  _399
REMARK  167  A    between atoms: _405  and  _407
REMARK  168  A    between atoms: _407  and  _408
REMARK  169  A    between atoms: _407  and  _410
REMARK  170  A    between atoms: _410  and  _411
REMARK  171  A    between atoms: _414  and  _416
REMARK  172  A    between atoms: _416  and  _417
REMARK  173  A    between atoms: _416  and  _419
REMARK  174  A    between atoms: _419  and  _420
REMARK  175  A    between atoms: _424  and  _425
REMARK  176  A    between atoms: _430  and  _432
REMARK  177  A    between atoms: _432  and  _433
REMARK  178  A    between atoms: _432  and  _435
REMARK  179  A    between atoms: _435  and  _436
REMARK  180  A    between atoms: _440  and  _441
REMARK  181  A    between atoms: _446  and  _448
REMARK  182  A    between atoms: _448  and  _449
REMARK  183  A    between atoms: _448  and  _451
REMARK  184  A    between atoms: _454  and  _456
REMARK  185  A    between atoms: _456  and  _457
REMARK  186  A    between atoms: _456  and  _459
REMARK  187  A    between atoms: _459  and  _460
REMARK  188  A    between atoms: _465  and  _467
REMARK  189  A    between atoms: _467  and  _468
REMARK  190  A    between atoms: _467  and  _470
REMARK  191  A    between atoms: _470  and  _471
REMARK  192  A    between atoms: _474  and  _476
REMARK  193  A    between atoms: _476  and  _477
REMARK  194  A    between atoms: _476  and  _479
REMARK  195  A    between atoms: _479  and  _480
REMARK  196  A    between atoms: _483  and  _485
REMARK  197  A    between atoms: _485  and  _486
REMARK  198  A    between atoms: _488  and  _490
REMARK  199  A    between atoms: _490  and  _491
REMARK  200  A    between atoms: _490  and  _493
REMARK  201  A    between atoms: _493  and  _494
REMARK  202  A    between atoms: _494  and  _495
REMARK  203  A    between atoms: _495  and  _496
REMARK  204  A    between atoms: _505  and  _507
REMARK  205  A    between atoms: _507  and  _508
REMARK  206  A    between atoms: _507  and  _510
REMARK  207  A    between atoms: _510  and  _511
REMARK                            x       y       z     vdW  Elec       q    Type
REMARK                         _______ _______ _______ _____ _____    ______ ____
ROOT
ATOM      1  O   HOH     1      23.540  25.662   5.199  0.00  0.00    +0.000 OA
ENDROOT
TORSDOF 0
REMARK  Name = ../refined-set-2016/3gi4/3gi4_pocket.pdb
REMARK  207 active torsions:
REMARK  status: ('A' for Active; 'I' for Inactive)
REMARK    1  A    between atoms: _1  and  _3
REMARK    2  A    between atoms: _3  and  _4
REMARK    3  A    between atoms: _3  and  _6
REMARK    4  A    between atoms: _6  and  _7
REMARK    5  A    between atoms: _7  and  _8
REMARK    6  A    between atoms: _8  and  _9
REMARK    7  A    between atoms: _18  and  _20
REMARK    8  A    between atoms: _20  and  _21
REMARK    9  A    between atoms: _20  and  _23
REMARK   10  A    between atoms: _23  and  _24
REMARK   11  A    between atoms: _27  and  _29
REMARK   12  A    between atoms: _29  and  _30
REMARK   13  A    between atoms: _29  and  _32
REMARK   14  A    between atoms: _32  and  _33
REMARK   15  A    between atoms: _36  and  _38
REMARK   16  A    between atoms: _38  and  _39
REMARK   17  A    between atoms: _38  and  _41
REMARK   18  A    between atoms: _41  and  _42
REMARK   19  A    between atoms: _45  and  _47
REMARK   20  A    between atoms: _47  and  _48
REMARK   21  A    between atoms: _47  and  _50
REMARK   22  A    between atoms: _50  and  _51
REMARK   23  A    between atoms: _54  and  _56
REMARK   24  A    between atoms: _56  and  _57
REMARK   25  A    between atoms: _59  and  _61
REMARK   26  A    between atoms: _61  and  _62
REMARK   27  A    between atoms: _65  and  _67
REMARK   28  A    between atoms: _67  and  _68
REMARK   29  A    between atoms: _67  and  _70
REMARK   30  A    between atoms: _70  and  _71
REMARK   31  A    between atoms: _74  and  _76
REMARK   32  A    between atoms: _76  and  _77
REMARK   33  A    between atoms: _76  and  _79
REMARK   34  A    between atoms: _79  and  _80
REMARK   35  A    between atoms: _83  and  _85
REMARK   36  A    between atoms: _85  and  _86
REMARK   37  A    between atoms: _85  and  _88
REMARK   38  A    between atoms: _88  and  _89
REMARK   39  A    between atoms: _92  and  _94
REMARK   40  A    between atoms: _94  and  _95
REMARK   41  A    between atoms: _94  and  _97
REMARK   42  A    between atoms: _100  and  _102
REMARK   43  A    between atoms: _102  and  _103
REMARK   44  A    between atoms: _102  and  _105
REMARK   45  A    between atoms: _105  and  _106
REMARK   46  A    between atoms: _109  and  _111
REMARK   47  A    between atoms: _111  and  _112
REMARK   48  A    between atoms: _114  and  _116
REMARK   49  A    between atoms: _116  and  _117
REMARK   50  A    between atoms: _119  and  _121
REMARK   51  A    between atoms: _121  and  _122
REMARK   52  A    between atoms: _121  and  _124
REMARK   53  A    between atoms: _124  and  _125
REMARK   54  A    between atoms: _128  and  _130
REMARK   55  A    between atoms: _130  and  _131
REMARK   56  A    between atoms: _133  and  _135
REMARK   57  A    between atoms: _135  and  _136
REMARK   58  A    between atoms: _138  and  _140
REMARK   59  A    between atoms: _140  and  _141
REMARK   60  A    between atoms: _140  and  _143
REMARK   61  A    between atoms: _143  and  _144
REMARK   62  A    between atoms: _150  and  _152
REMARK   63  A    between atoms: _152  and  _153
REMARK   64  A    between atoms: _152  and  _155
REMARK   65  A    between atoms: _155  and  _156
REMARK   66  A    between atoms: _159  and  _161
REMARK   67  A    between atoms: _161  and  _162
REMARK   68  A    between atoms: _161  and  _164
REMARK   69  A    between atoms: _164  and  _165
REMARK   70  A    between atoms: _169  and  _170
REMARK   71  A    between atoms: _175  and  _177
REMARK   72  A    between atoms: _177  and  _178
REMARK   73  A    between atoms: _177  and  _180
REMARK   74  A    between atoms: _183  and  _185
REMARK   75  A    between atoms: _185  and  _186
REMARK   76  A    between atoms: _185  and  _188
REMARK   77  A    between atoms: _188  and  _189
REMARK   78  A    between atoms: _194  and  _196
REMARK   79  A    between atoms: _196  and  _197
REMARK   80  A    between atoms: _196  and  _199
REMARK   81  A    between atoms: _199  and  _200
REMARK   82  A    between atoms: _203  and  _205
REMARK   83  A    between atoms: _205  and  _206
REMARK   84  A    between atoms: _205  and  _208
REMARK   85  A    between atoms: _208  and  _209
REMARK   86  A    between atoms: _212  and  _214
REMARK   87  A    between atoms: _214  and  _215
REMARK   88  A    between atoms: _217  and  _219
REMARK   89  A    between atoms: _219  and  _220
REMARK   90  A    between atoms: _219  and  _222
REMARK   91  A    between atoms: _222  and  _223
REMARK   92  A    between atoms: _223  and  _224
REMARK   93  A    between atoms: _224  and  _225
REMARK   94  A    between atoms: _234  and  _236
REMARK   95  A    between atoms: _236  and  _237
REMARK   96  A    between atoms: _236  and  _239
REMARK   97  A    between atoms: _239  and  _240
REMARK   98  A    between atoms: _240  and  _241
REMARK   99  A    between atoms: _241  and  _242
REMARK  100  A    between atoms: _251  and  _253
REMARK  101  A    between atoms: _253  and  _254
REMARK  102  A    between atoms: _253  and  _256
REMARK  103  A    between atoms: _256  and  _257
REMARK  104  A    between atoms: _260  and  _262
REMARK  105  A    between atoms: _262  and  _263
REMARK  106  A    between atoms: _262  and  _265
REMARK  107  A    between atoms: _265  and  _266
REMARK  108  A    between atoms: _269  and  _271
REMARK  109  A    between atoms: _271  and  _272
REMARK  110  A    between atoms: _271  and  _274
REMARK  111  A    between atoms: _274  and  _275
REMARK  112  A    between atoms: _278  and  _280
REMARK  113  A    between atoms: _280  and  _281
REMARK  114  A    between atoms: _280  and  _283
REMARK  115  A    between atoms: _283  and  _284
REMARK  116  A    between atoms: _287  and  _289
REMARK  117  A    between atoms: _289  and  _290
REMARK  118  A    between atoms: _292  and  _294
REMARK  119  A    between atoms: _294  and  _295
REMARK  120  A    between atoms: _298  and  _300
REMARK  121  A    between atoms: _300  and  _301
REMARK  122  A    between atoms: _300  and  _303
REMARK  123  A    between atoms: _303  and  _304
REMARK  124  A    between atoms: _307  and  _309
REMARK  125  A    between atoms: _309  and  _310
REMARK  126  A    between atoms: _309  and  _312
REMARK  127  A    between atoms: _312  and  _313
REMARK  128  A    between atoms: _316  and  _318
REMARK  129  A    between atoms: _318  and  _319
REMARK  130  A    between atoms: _318  and  _321
REMARK  131  A    between atoms: _321  and  _322
REMARK  132  A    between atoms: _325  and  _327
REMARK  133  A    between atoms: _327  and  _328
REMARK  134  A    between atoms: _327  and  _330
REMARK  135  A    between atoms: _333  and  _335
REMARK  136  A    between atoms: _335  and  _336
REMARK  137  A    between atoms: _335  and  _338
REMARK  138  A    between atoms: _338  and  _339
REMARK  139  A    between atoms: _339  and  _340
REMARK  140  A    between atoms: _340  and  _341
REMARK  141  A    between atoms: _341  and  _342
REMARK  142  A    between atoms: _346  and  _348
REMARK  143  A    between atoms: _348  and  _349
REMARK  144  A    between atoms: _348  and  _351
REMARK  145  A    between atoms: _351  and  _352
REMARK  146  A    between atoms: _352  and  _353
REMARK  147  A    between atoms: _355  and  _357
REMARK  148  A    between atoms: _357  and  _358
REMARK  149  A    between atoms: _357  and  _360
REMARK  150  A    between atoms: _360  and  _361
REMARK  151  A    between atoms: _364  and  _366
REMARK  152  A    between atoms: _366  and  _367
REMARK  153  A    between atoms: _369  and  _371
REMARK  154  A    between atoms: _371  and  _372
REMARK  155  A    between atoms: _374  and  _376
REMARK  156  A    between atoms: _376  and  _377
REMARK  157  A    between atoms: _376  and  _379
REMARK  158  A    between atoms: _379  and  _380
REMARK  159  A    between atoms: _383  and  _385
REMARK  160  A    between atoms: _385  and  _386
REMARK  161  A    between atoms: _388  and  _390
REMARK  162  A    between atoms: _390  and  _391
REMARK  163  A    between atoms: _393  and  _395
REMARK  164  A    between atoms: _395  and  _396
REMARK  165  A    between atoms: _395  and  _398
REMARK  166  A    between atoms: _398  and  _399
REMARK  167  A    between atoms: _405  and  _407
REMARK  168  A    between atoms: _407  and  _408
REMARK  169  A    between atoms: _407  and  _410
REMARK  170  A    between atoms: _410  and  _411
REMARK  171  A    between atoms: _414  and  _416
REMARK  172  A    between atoms: _416  and  _417
REMARK  173  A    between atoms: _416  and  _419
REMARK  174  A    between atoms: _419  and  _420
REMARK  175  A    between atoms: _424  and  _425
REMARK  176  A    between atoms: _430  and  _432
REMARK  177  A    between atoms: _432  and  _433
REMARK  178  A    between atoms: _432  and  _435
REMARK  179  A    between atoms: _435  and  _436
REMARK  180  A    between atoms: _440  and  _441
REMARK  181  A    between atoms: _446  and  _448
REMARK  182  A    between atoms: _448  and  _449
REMARK  183  A    between atoms: _448  and  _451
REMARK  184  A    between atoms: _454  and  _456
REMARK  185  A    between atoms: _456  and  _457
REMARK  186  A    between atoms: _456  and  _459
REMARK  187  A    between atoms: _459  and  _460
REMARK  188  A    between atoms: _465  and  _467
REMARK  189  A    between atoms: _467  and  _468
REMARK  190  A    between atoms: _467  and  _470
REMARK  191  A    between atoms: _470  and  _471
REMARK  192  A    between atoms: _474  and  _476
REMARK  193  A    between atoms: _476  and  _477
REMARK  194  A    between atoms: _476  and  _479
REMARK  195  A    between atoms: _479  and  _480
REMARK  196  A    between atoms: _483  and  _485
REMARK  197  A    between atoms: _485  and  _486
REMARK  198  A    between atoms: _488  and  _490
REMARK  199  A    between atoms: _490  and  _491
REMARK  200  A    between atoms: _490  and  _493
REMARK  201  A    between atoms: _493  and  _494
REMARK  202  A    between atoms: _494  and  _495
REMARK  203  A    between atoms: _495  and  _496
REMARK  204  A    between atoms: _505  and  _507
REMARK  205  A    between atoms: _507  and  _508
REMARK  206  A    between atoms: _507  and  _510
REMARK  207  A    between atoms: _510  and  _511
REMARK                            x       y       z     vdW  Elec       q    Type
REMARK                         _______ _______ _______ _____ _____    ______ ____
ROOT
ATOM      1  O   HOH     1      15.106  34.642   5.088  0.00  0.00    +0.000 OA
ENDROOT
TORSDOF 0
REMARK  Name = ../refined-set-2016/3gi4/3gi4_pocket.pdb
REMARK  207 active torsions:
REMARK  status: ('A' for Active; 'I' for Inactive)
REMARK    1  A    between atoms: _1  and  _3
REMARK    2  A    between atoms: _3  and  _4
REMARK    3  A    between atoms: _3  and  _6
REMARK    4  A    between atoms: _6  and  _7
REMARK    5  A    between atoms: _7  and  _8
REMARK    6  A    between atoms: _8  and  _9
REMARK    7  A    between atoms: _18  and  _20
REMARK    8  A    between atoms: _20  and  _21
REMARK    9  A    between atoms: _20  and  _23
REMARK   10  A    between atoms: _23  and  _24
REMARK   11  A    between atoms: _27  and  _29
REMARK   12  A    between atoms: _29  and  _30
REMARK   13  A    between atoms: _29  and  _32
REMARK   14  A    between atoms: _32  and  _33
REMARK   15  A    between atoms: _36  and  _38
REMARK   16  A    between atoms: _38  and  _39
REMARK   17  A    between atoms: _38  and  _41
REMARK   18  A    between atoms: _41  and  _42
REMARK   19  A    between atoms: _45  and  _47
REMARK   20  A    between atoms: _47  and  _48
REMARK   21  A    between atoms: _47  and  _50
REMARK   22  A    between atoms: _50  and  _51
REMARK   23  A    between atoms: _54  and  _56
REMARK   24  A    between atoms: _56  and  _57
REMARK   25  A    between atoms: _59  and  _61
REMARK   26  A    between atoms: _61  and  _62
REMARK   27  A    between atoms: _65  and  _67
REMARK   28  A    between atoms: _67  and  _68
REMARK   29  A    between atoms: _67  and  _70
REMARK   30  A    between atoms: _70  and  _71
REMARK   31  A    between atoms: _74  and  _76
REMARK   32  A    between atoms: _76  and  _77
REMARK   33  A    between atoms: _76  and  _79
REMARK   34  A    between atoms: _79  and  _80
REMARK   35  A    between atoms: _83  and  _85
REMARK   36  A    between atoms: _85  and  _86
REMARK   37  A    between atoms: _85  and  _88
REMARK   38  A    between atoms: _88  and  _89
REMARK   39  A    between atoms: _92  and  _94
REMARK   40  A    between atoms: _94  and  _95
REMARK   41  A    between atoms: _94  and  _97
REMARK   42  A    between atoms: _100  and  _102
REMARK   43  A    between atoms: _102  and  _103
REMARK   44  A    between atoms: _102  and  _105
REMARK   45  A    between atoms: _105  and  _106
REMARK   46  A    between atoms: _109  and  _111
REMARK   47  A    between atoms: _111  and  _112
REMARK   48  A    between atoms: _114  and  _116
REMARK   49  A    between atoms: _116  and  _117
REMARK   50  A    between atoms: _119  and  _121
REMARK   51  A    between atoms: _121  and  _122
REMARK   52  A    between atoms: _121  and  _124
REMARK   53  A    between atoms: _124  and  _125
REMARK   54  A    between atoms: _128  and  _130
REMARK   55  A    between atoms: _130  and  _131
REMARK   56  A    between atoms: _133  and  _135
REMARK   57  A    between atoms: _135  and  _136
REMARK   58  A    between atoms: _138  and  _140
REMARK   59  A    between atoms: _140  and  _141
REMARK   60  A    between atoms: _140  and  _143
REMARK   61  A    between atoms: _143  and  _144
REMARK   62  A    between atoms: _150  and  _152
REMARK   63  A    between atoms: _152  and  _153
REMARK   64  A    between atoms: _152  and  _155
REMARK   65  A    between atoms: _155  and  _156
REMARK   66  A    between atoms: _159  and  _161
REMARK   67  A    between atoms: _161  and  _162
REMARK   68  A    between atoms: _161  and  _164
REMARK   69  A    between atoms: _164  and  _165
REMARK   70  A    between atoms: _169  and  _170
REMARK   71  A    between atoms: _175  and  _177
REMARK   72  A    between atoms: _177  and  _178
REMARK   73  A    between atoms: _177  and  _180
REMARK   74  A    between atoms: _183  and  _185
REMARK   75  A    between atoms: _185  and  _186
REMARK   76  A    between atoms: _185  and  _188
REMARK   77  A    between atoms: _188  and  _189
REMARK   78  A    between atoms: _194  and  _196
REMARK   79  A    between atoms: _196  and  _197
REMARK   80  A    between atoms: _196  and  _199
REMARK   81  A    between atoms: _199  and  _200
REMARK   82  A    between atoms: _203  and  _205
REMARK   83  A    between atoms: _205  and  _206
REMARK   84  A    between atoms: _205  and  _208
REMARK   85  A    between atoms: _208  and  _209
REMARK   86  A    between atoms: _212  and  _214
REMARK   87  A    between atoms: _214  and  _215
REMARK   88  A    between atoms: _217  and  _219
REMARK   89  A    between atoms: _219  and  _220
REMARK   90  A    between atoms: _219  and  _222
REMARK   91  A    between atoms: _222  and  _223
REMARK   92  A    between atoms: _223  and  _224
REMARK   93  A    between atoms: _224  and  _225
REMARK   94  A    between atoms: _234  and  _236
REMARK   95  A    between atoms: _236  and  _237
REMARK   96  A    between atoms: _236  and  _239
REMARK   97  A    between atoms: _239  and  _240
REMARK   98  A    between atoms: _240  and  _241
REMARK   99  A    between atoms: _241  and  _242
REMARK  100  A    between atoms: _251  and  _253
REMARK  101  A    between atoms: _253  and  _254
REMARK  102  A    between atoms: _253  and  _256
REMARK  103  A    between atoms: _256  and  _257
REMARK  104  A    between atoms: _260  and  _262
REMARK  105  A    between atoms: _262  and  _263
REMARK  106  A    between atoms: _262  and  _265
REMARK  107  A    between atoms: _265  and  _266
REMARK  108  A    between atoms: _269  and  _271
REMARK  109  A    between atoms: _271  and  _272
REMARK  110  A    between atoms: _271  and  _274
REMARK  111  A    between atoms: _274  and  _275
REMARK  112  A    between atoms: _278  and  _280
REMARK  113  A    between atoms: _280  and  _281
REMARK  114  A    between atoms: _280  and  _283
REMARK  115  A    between atoms: _283  and  _284
REMARK  116  A    between atoms: _287  and  _289
REMARK  117  A    between atoms: _289  and  _290
REMARK  118  A    between atoms: _292  and  _294
REMARK  119  A    between atoms: _294  and  _295
REMARK  120  A    between atoms: _298  and  _300
REMARK  121  A    between atoms: _300  and  _301
REMARK  122  A    between atoms: _300  and  _303
REMARK  123  A    between atoms: _303  and  _304
REMARK  124  A    between atoms: _307  and  _309
REMARK  125  A    between atoms: _309  and  _310
REMARK  126  A    between atoms: _309  and  _312
REMARK  127  A    between atoms: _312  and  _313
REMARK  128  A    between atoms: _316  and  _318
REMARK  129  A    between atoms: _318  and  _319
REMARK  130  A    between atoms: _318  and  _321
REMARK  131  A    between atoms: _321  and  _322
REMARK  132  A    between atoms: _325  and  _327
REMARK  133  A    between atoms: _327  and  _328
REMARK  134  A    between atoms: _327  and  _330
REMARK  135  A    between atoms: _333  and  _335
REMARK  136  A    between atoms: _335  and  _336
REMARK  137  A    between atoms: _335  and  _338
REMARK  138  A    between atoms: _338  and  _339
REMARK  139  A    between atoms: _339  and  _340
REMARK  140  A    between atoms: _340  and  _341
REMARK  141  A    between atoms: _341  and  _342
REMARK  142  A    between atoms: _346  and  _348
REMARK  143  A    between atoms: _348  and  _349
REMARK  144  A    between atoms: _348  and  _351
REMARK  145  A    between atoms: _351  and  _352
REMARK  146  A    between atoms: _352  and  _353
REMARK  147  A    between atoms: _355  and  _357
REMARK  148  A    between atoms: _357  and  _358
REMARK  149  A    between atoms: _357  and  _360
REMARK  150  A    between atoms: _360  and  _361
REMARK  151  A    between atoms: _364  and  _366
REMARK  152  A    between atoms: _366  and  _367
REMARK  153  A    between atoms: _369  and  _371
REMARK  154  A    between atoms: _371  and  _372
REMARK  155  A    between atoms: _374  and  _376
REMARK  156  A    between atoms: _376  and  _377
REMARK  157  A    between atoms: _376  and  _379
REMARK  158  A    between atoms: _379  and  _380
REMARK  159  A    between atoms: _383  and  _385
REMARK  160  A    between atoms: _385  and  _386
REMARK  161  A    between atoms: _388  and  _390
REMARK  162  A    between atoms: _390  and  _391
REMARK  163  A    between atoms: _393  and  _395
REMARK  164  A    between atoms: _395  and  _396
REMARK  165  A    between atoms: _395  and  _398
REMARK  166  A    between atoms: _398  and  _399
REMARK  167  A    between atoms: _405  and  _407
REMARK  168  A    between atoms: _407  and  _408
REMARK  169  A    between atoms: _407  and  _410
REMARK  170  A    between atoms: _410  and  _411
REMARK  171  A    between atoms: _414  and  _416
REMARK  172  A    between atoms: _416  and  _417
REMARK  173  A    between atoms: _416  and  _419
REMARK  174  A    between atoms: _419  and  _420
REMARK  175  A    between atoms: _424  and  _425
REMARK  176  A    between atoms: _430  and  _432
REMARK  177  A    between atoms: _432  and  _433
REMARK  178  A    between atoms: _432  and  _435
REMARK  179  A    between atoms: _435  and  _436
REMARK  180  A    between atoms: _440  and  _441
REMARK  181  A    between atoms: _446  and  _448
REMARK  182  A    between atoms: _448  and  _449
REMARK  183  A    between atoms: _448  and  _451
REMARK  184  A    between atoms: _454  and  _456
REMARK  185  A    between atoms: _456  and  _457
REMARK  186  A    between atoms: _456  and  _459
REMARK  187  A    between atoms: _459  and  _460
REMARK  188  A    between atoms: _465  and  _467
REMARK  189  A    between atoms: _467  and  _468
REMARK  190  A    between atoms: _467  and  _470
REMARK  191  A    between atoms: _470  and  _471
REMARK  192  A    between atoms: _474  and  _476
REMARK  193  A    between atoms: _476  and  _477
REMARK  194  A    between atoms: _476  and  _479
REMARK  195  A    between atoms: _479  and  _480
REMARK  196  A    between atoms: _483  and  _485
REMARK  197  A    between atoms: _485  and  _486
REMARK  198  A    between atoms: _488  and  _490
REMARK  199  A    between atoms: _490  and  _491
REMARK  200  A    between atoms: _490  and  _493
REMARK  201  A    between atoms: _493  and  _494
REMARK  202  A    between atoms: _494  and  _495
REMARK  203  A    between atoms: _495  and  _496
REMARK  204  A    between atoms: _505  and  _507
REMARK  205  A    between atoms: _507  and  _508
REMARK  206  A    between atoms: _507  and  _510
REMARK  207  A    between atoms: _510  and  _511
REMARK                            x       y       z     vdW  Elec       q    Type
REMARK                         _______ _______ _______ _____ _____    ______ ____
ROOT
ATOM      1  O   HOH     1      24.736  40.495  16.917  0.00  0.00    +0.000 OA
ENDROOT
TORSDOF 0
REMARK  Name = ../refined-set-2016/3gi4/3gi4_pocket.pdb
REMARK  207 active torsions:
REMARK  status: ('A' for Active; 'I' for Inactive)
REMARK    1  A    between atoms: _1  and  _3
REMARK    2  A    between atoms: _3  and  _4
REMARK    3  A    between atoms: _3  and  _6
REMARK    4  A    between atoms: _6  and  _7
REMARK    5  A    between atoms: _7  and  _8
REMARK    6  A    between atoms: _8  and  _9
REMARK    7  A    between atoms: _18  and  _20
REMARK    8  A    between atoms: _20  and  _21
REMARK    9  A    between atoms: _20  and  _23
REMARK   10  A    between atoms: _23  and  _24
REMARK   11  A    between atoms: _27  and  _29
REMARK   12  A    between atoms: _29  and  _30
REMARK   13  A    between atoms: _29  and  _32
REMARK   14  A    between atoms: _32  and  _33
REMARK   15  A    between atoms: _36  and  _38
REMARK   16  A    between atoms: _38  and  _39
REMARK   17  A    between atoms: _38  and  _41
REMARK   18  A    between atoms: _41  and  _42
REMARK   19  A    between atoms: _45  and  _47
REMARK   20  A    between atoms: _47  and  _48
REMARK   21  A    between atoms: _47  and  _50
REMARK   22  A    between atoms: _50  and  _51
REMARK   23  A    between atoms: _54  and  _56
REMARK   24  A    between atoms: _56  and  _57
REMARK   25  A    between atoms: _59  and  _61
REMARK   26  A    between atoms: _61  and  _62
REMARK   27  A    between atoms: _65  and  _67
REMARK   28  A    between atoms: _67  and  _68
REMARK   29  A    between atoms: _67  and  _70
REMARK   30  A    between atoms: _70  and  _71
REMARK   31  A    between atoms: _74  and  _76
REMARK   32  A    between atoms: _76  and  _77
REMARK   33  A    between atoms: _76  and  _79
REMARK   34  A    between atoms: _79  and  _80
REMARK   35  A    between atoms: _83  and  _85
REMARK   36  A    between atoms: _85  and  _86
REMARK   37  A    between atoms: _85  and  _88
REMARK   38  A    between atoms: _88  and  _89
REMARK   39  A    between atoms: _92  and  _94
REMARK   40  A    between atoms: _94  and  _95
REMARK   41  A    between atoms: _94  and  _97
REMARK   42  A    between atoms: _100  and  _102
REMARK   43  A    between atoms: _102  and  _103
REMARK   44  A    between atoms: _102  and  _105
REMARK   45  A    between atoms: _105  and  _106
REMARK   46  A    between atoms: _109  and  _111
REMARK   47  A    between atoms: _111  and  _112
REMARK   48  A    between atoms: _114  and  _116
REMARK   49  A    between atoms: _116  and  _117
REMARK   50  A    between atoms: _119  and  _121
REMARK   51  A    between atoms: _121  and  _122
REMARK   52  A    between atoms: _121  and  _124
REMARK   53  A    between atoms: _124  and  _125
REMARK   54  A    between atoms: _128  and  _130
REMARK   55  A    between atoms: _130  and  _131
REMARK   56  A    between atoms: _133  and  _135
REMARK   57  A    between atoms: _135  and  _136
REMARK   58  A    between atoms: _138  and  _140
REMARK   59  A    between atoms: _140  and  _141
REMARK   60  A    between atoms: _140  and  _143
REMARK   61  A    between atoms: _143  and  _144
REMARK   62  A    between atoms: _150  and  _152
REMARK   63  A    between atoms: _152  and  _153
REMARK   64  A    between atoms: _152  and  _155
REMARK   65  A    between atoms: _155  and  _156
REMARK   66  A    between atoms: _159  and  _161
REMARK   67  A    between atoms: _161  and  _162
REMARK   68  A    between atoms: _161  and  _164
REMARK   69  A    between atoms: _164  and  _165
REMARK   70  A    between atoms: _169  and  _170
REMARK   71  A    between atoms: _175  and  _177
REMARK   72  A    between atoms: _177  and  _178
REMARK   73  A    between atoms: _177  and  _180
REMARK   74  A    between atoms: _183  and  _185
REMARK   75  A    between atoms: _185  and  _186
REMARK   76  A    between atoms: _185  and  _188
REMARK   77  A    between atoms: _188  and  _189
REMARK   78  A    between atoms: _194  and  _196
REMARK   79  A    between atoms: _196  and  _197
REMARK   80  A    between atoms: _196  and  _199
REMARK   81  A    between atoms: _199  and  _200
REMARK   82  A    between atoms: _203  and  _205
REMARK   83  A    between atoms: _205  and  _206
REMARK   84  A    between atoms: _205  and  _208
REMARK   85  A    between atoms: _208  and  _209
REMARK   86  A    between atoms: _212  and  _214
REMARK   87  A    between atoms: _214  and  _215
REMARK   88  A    between atoms: _217  and  _219
REMARK   89  A    between atoms: _219  and  _220
REMARK   90  A    between atoms: _219  and  _222
REMARK   91  A    between atoms: _222  and  _223
REMARK   92  A    between atoms: _223  and  _224
REMARK   93  A    between atoms: _224  and  _225
REMARK   94  A    between atoms: _234  and  _236
REMARK   95  A    between atoms: _236  and  _237
REMARK   96  A    between atoms: _236  and  _239
REMARK   97  A    between atoms: _239  and  _240
REMARK   98  A    between atoms: _240  and  _241
REMARK   99  A    between atoms: _241  and  _242
REMARK  100  A    between atoms: _251  and  _253
REMARK  101  A    between atoms: _253  and  _254
REMARK  102  A    between atoms: _253  and  _256
REMARK  103  A    between atoms: _256  and  _257
REMARK  104  A    between atoms: _260  and  _262
REMARK  105  A    between atoms: _262  and  _263
REMARK  106  A    between atoms: _262  and  _265
REMARK  107  A    between atoms: _265  and  _266
REMARK  108  A    between atoms: _269  and  _271
REMARK  109  A    between atoms: _271  and  _272
REMARK  110  A    between atoms: _271  and  _274
REMARK  111  A    between atoms: _274  and  _275
REMARK  112  A    between atoms: _278  and  _280
REMARK  113  A    between atoms: _280  and  _281
REMARK  114  A    between atoms: _280  and  _283
REMARK  115  A    between atoms: _283  and  _284
REMARK  116  A    between atoms: _287  and  _289
REMARK  117  A    between atoms: _289  and  _290
REMARK  118  A    between atoms: _292  and  _294
REMARK  119  A    between atoms: _294  and  _295
REMARK  120  A    between atoms: _298  and  _300
REMARK  121  A    between atoms: _300  and  _301
REMARK  122  A    between atoms: _300  and  _303
REMARK  123  A    between atoms: _303  and  _304
REMARK  124  A    between atoms: _307  and  _309
REMARK  125  A    between atoms: _309  and  _310
REMARK  126  A    between atoms: _309  and  _312
REMARK  127  A    between atoms: _312  and  _313
REMARK  128  A    between atoms: _316  and  _318
REMARK  129  A    between atoms: _318  and  _319
REMARK  130  A    between atoms: _318  and  _321
REMARK  131  A    between atoms: _321  and  _322
REMARK  132  A    between atoms: _325  and  _327
REMARK  133  A    between atoms: _327  and  _328
REMARK  134  A    between atoms: _327  and  _330
REMARK  135  A    between atoms: _333  and  _335
REMARK  136  A    between atoms: _335  and  _336
REMARK  137  A    between atoms: _335  and  _338
REMARK  138  A    between atoms: _338  and  _339
REMARK  139  A    between atoms: _339  and  _340
REMARK  140  A    between atoms: _340  and  _341
REMARK  141  A    between atoms: _341  and  _342
REMARK  142  A    between atoms: _346  and  _348
REMARK  143  A    between atoms: _348  and  _349
REMARK  144  A    between atoms: _348  and  _351
REMARK  145  A    between atoms: _351  and  _352
REMARK  146  A    between atoms: _352  and  _353
REMARK  147  A    between atoms: _355  and  _357
REMARK  148  A    between atoms: _357  and  _358
REMARK  149  A    between atoms: _357  and  _360
REMARK  150  A    between atoms: _360  and  _361
REMARK  151  A    between atoms: _364  and  _366
REMARK  152  A    between atoms: _366  and  _367
REMARK  153  A    between atoms: _369  and  _371
REMARK  154  A    between atoms: _371  and  _372
REMARK  155  A    between atoms: _374  and  _376
REMARK  156  A    between atoms: _376  and  _377
REMARK  157  A    between atoms: _376  and  _379
REMARK  158  A    between atoms: _379  and  _380
REMARK  159  A    between atoms: _383  and  _385
REMARK  160  A    between atoms: _385  and  _386
REMARK  161  A    between atoms: _388  and  _390
REMARK  162  A    between atoms: _390  and  _391
REMARK  163  A    between atoms: _393  and  _395
REMARK  164  A    between atoms: _395  and  _396
REMARK  165  A    between atoms: _395  and  _398
REMARK  166  A    between atoms: _398  and  _399
REMARK  167  A    between atoms: _405  and  _407
REMARK  168  A    between atoms: _407  and  _408
REMARK  169  A    between atoms: _407  and  _410
REMARK  170  A    between atoms: _410  and  _411
REMARK  171  A    between atoms: _414  and  _416
REMARK  172  A    between atoms: _416  and  _417
REMARK  173  A    between atoms: _416  and  _419
REMARK  174  A    between atoms: _419  and  _420
REMARK  175  A    between atoms: _424  and  _425
REMARK  176  A    between atoms: _430  and  _432
REMARK  177  A    between atoms: _432  and  _433
REMARK  178  A    between atoms: _432  and  _435
REMARK  179  A    between atoms: _435  and  _436
REMARK  180  A    between atoms: _440  and  _441
REMARK  181  A    between atoms: _446  and  _448
REMARK  182  A    between atoms: _448  and  _449
REMARK  183  A    between atoms: _448  and  _451
REMARK  184  A    between atoms: _454  and  _456
REMARK  185  A    between atoms: _456  and  _457
REMARK  186  A    between atoms: _456  and  _459
REMARK  187  A    between atoms: _459  and  _460
REMARK  188  A    between atoms: _465  and  _467
REMARK  189  A    between atoms: _467  and  _468
REMARK  190  A    between atoms: _467  and  _470
REMARK  191  A    between atoms: _470  and  _471
REMARK  192  A    between atoms: _474  and  _476
REMARK  193  A    between atoms: _476  and  _477
REMARK  194  A    between atoms: _476  and  _479
REMARK  195  A    between atoms: _479  and  _480
REMARK  196  A    between atoms: _483  and  _485
REMARK  197  A    between atoms: _485  and  _486
REMARK  198  A    between atoms: _488  and  _490
REMARK  199  A    between atoms: _490  and  _491
REMARK  200  A    between atoms: _490  and  _493
REMARK  201  A    between atoms: _493  and  _494
REMARK  202  A    between atoms: _494  and  _495
REMARK  203  A    between atoms: _495  and  _496
REMARK  204  A    between atoms: _505  and  _507
REMARK  205  A    between atoms: _507  and  _508
REMARK  206  A    between atoms: _507  and  _510
REMARK  207  A    between atoms: _510  and  _511
REMARK                            x       y       z     vdW  Elec       q    Type
REMARK                         _______ _______ _______ _____ _____    ______ ____
ROOT
ATOM      1  O   HOH     1      24.144  27.261   9.245  0.00  0.00    +0.000 OA
ENDROOT
TORSDOF 0
REMARK  Name = ../refined-set-2016/3gi4/3gi4_pocket.pdb
REMARK  207 active torsions:
REMARK  status: ('A' for Active; 'I' for Inactive)
REMARK    1  A    between atoms: _1  and  _3
REMARK    2  A    between atoms: _3  and  _4
REMARK    3  A    between atoms: _3  and  _6
REMARK    4  A    between atoms: _6  and  _7
REMARK    5  A    between atoms: _7  and  _8
REMARK    6  A    between atoms: _8  and  _9
REMARK    7  A    between atoms: _18  and  _20
REMARK    8  A    between atoms: _20  and  _21
REMARK    9  A    between atoms: _20  and  _23
REMARK   10  A    between atoms: _23  and  _24
REMARK   11  A    between atoms: _27  and  _29
REMARK   12  A    between atoms: _29  and  _30
REMARK   13  A    between atoms: _29  and  _32
REMARK   14  A    between atoms: _32  and  _33
REMARK   15  A    between atoms: _36  and  _38
REMARK   16  A    between atoms: _38  and  _39
REMARK   17  A    between atoms: _38  and  _41
REMARK   18  A    between atoms: _41  and  _42
REMARK   19  A    between atoms: _45  and  _47
REMARK   20  A    between atoms: _47  and  _48
REMARK   21  A    between atoms: _47  and  _50
REMARK   22  A    between atoms: _50  and  _51
REMARK   23  A    between atoms: _54  and  _56
REMARK   24  A    between atoms: _56  and  _57
REMARK   25  A    between atoms: _59  and  _61
REMARK   26  A    between atoms: _61  and  _62
REMARK   27  A    between atoms: _65  and  _67
REMARK   28  A    between atoms: _67  and  _68
REMARK   29  A    between atoms: _67  and  _70
REMARK   30  A    between atoms: _70  and  _71
REMARK   31  A    between atoms: _74  and  _76
REMARK   32  A    between atoms: _76  and  _77
REMARK   33  A    between atoms: _76  and  _79
REMARK   34  A    between atoms: _79  and  _80
REMARK   35  A    between atoms: _83  and  _85
REMARK   36  A    between atoms: _85  and  _86
REMARK   37  A    between atoms: _85  and  _88
REMARK   38  A    between atoms: _88  and  _89
REMARK   39  A    between atoms: _92  and  _94
REMARK   40  A    between atoms: _94  and  _95
REMARK   41  A    between atoms: _94  and  _97
REMARK   42  A    between atoms: _100  and  _102
REMARK   43  A    between atoms: _102  and  _103
REMARK   44  A    between atoms: _102  and  _105
REMARK   45  A    between atoms: _105  and  _106
REMARK   46  A    between atoms: _109  and  _111
REMARK   47  A    between atoms: _111  and  _112
REMARK   48  A    between atoms: _114  and  _116
REMARK   49  A    between atoms: _116  and  _117
REMARK   50  A    between atoms: _119  and  _121
REMARK   51  A    between atoms: _121  and  _122
REMARK   52  A    between atoms: _121  and  _124
REMARK   53  A    between atoms: _124  and  _125
REMARK   54  A    between atoms: _128  and  _130
REMARK   55  A    between atoms: _130  and  _131
REMARK   56  A    between atoms: _133  and  _135
REMARK   57  A    between atoms: _135  and  _136
REMARK   58  A    between atoms: _138  and  _140
REMARK   59  A    between atoms: _140  and  _141
REMARK   60  A    between atoms: _140  and  _143
REMARK   61  A    between atoms: _143  and  _144
REMARK   62  A    between atoms: _150  and  _152
REMARK   63  A    between atoms: _152  and  _153
REMARK   64  A    between atoms: _152  and  _155
REMARK   65  A    between atoms: _155  and  _156
REMARK   66  A    between atoms: _159  and  _161
REMARK   67  A    between atoms: _161  and  _162
REMARK   68  A    between atoms: _161  and  _164
REMARK   69  A    between atoms: _164  and  _165
REMARK   70  A    between atoms: _169  and  _170
REMARK   71  A    between atoms: _175  and  _177
REMARK   72  A    between atoms: _177  and  _178
REMARK   73  A    between atoms: _177  and  _180
REMARK   74  A    between atoms: _183  and  _185
REMARK   75  A    between atoms: _185  and  _186
REMARK   76  A    between atoms: _185  and  _188
REMARK   77  A    between atoms: _188  and  _189
REMARK   78  A    between atoms: _194  and  _196
REMARK   79  A    between atoms: _196  and  _197
REMARK   80  A    between atoms: _196  and  _199
REMARK   81  A    between atoms: _199  and  _200
REMARK   82  A    between atoms: _203  and  _205
REMARK   83  A    between atoms: _205  and  _206
REMARK   84  A    between atoms: _205  and  _208
REMARK   85  A    between atoms: _208  and  _209
REMARK   86  A    between atoms: _212  and  _214
REMARK   87  A    between atoms: _214  and  _215
REMARK   88  A    between atoms: _217  and  _219
REMARK   89  A    between atoms: _219  and  _220
REMARK   90  A    between atoms: _219  and  _222
REMARK   91  A    between atoms: _222  and  _223
REMARK   92  A    between atoms: _223  and  _224
REMARK   93  A    between atoms: _224  and  _225
REMARK   94  A    between atoms: _234  and  _236
REMARK   95  A    between atoms: _236  and  _237
REMARK   96  A    between atoms: _236  and  _239
REMARK   97  A    between atoms: _239  and  _240
REMARK   98  A    between atoms: _240  and  _241
REMARK   99  A    between atoms: _241  and  _242
REMARK  100  A    between atoms: _251  and  _253
REMARK  101  A    between atoms: _253  and  _254
REMARK  102  A    between atoms: _253  and  _256
REMARK  103  A    between atoms: _256  and  _257
REMARK  104  A    between atoms: _260  and  _262
REMARK  105  A    between atoms: _262  and  _263
REMARK  106  A    between atoms: _262  and  _265
REMARK  107  A    between atoms: _265  and  _266
REMARK  108  A    between atoms: _269  and  _271
REMARK  109  A    between atoms: _271  and  _272
REMARK  110  A    between atoms: _271  and  _274
REMARK  111  A    between atoms: _274  and  _275
REMARK  112  A    between atoms: _278  and  _280
REMARK  113  A    between atoms: _280  and  _281
REMARK  114  A    between atoms: _280  and  _283
REMARK  115  A    between atoms: _283  and  _284
REMARK  116  A    between atoms: _287  and  _289
REMARK  117  A    between atoms: _289  and  _290
REMARK  118  A    between atoms: _292  and  _294
REMARK  119  A    between atoms: _294  and  _295
REMARK  120  A    between atoms: _298  and  _300
REMARK  121  A    between atoms: _300  and  _301
REMARK  122  A    between atoms: _300  and  _303
REMARK  123  A    between atoms: _303  and  _304
REMARK  124  A    between atoms: _307  and  _309
REMARK  125  A    between atoms: _309  and  _310
REMARK  126  A    between atoms: _309  and  _312
REMARK  127  A    between atoms: _312  and  _313
REMARK  128  A    between atoms: _316  and  _318
REMARK  129  A    between atoms: _318  and  _319
REMARK  130  A    between atoms: _318  and  _321
REMARK  131  A    between atoms: _321  and  _322
REMARK  132  A    between atoms: _325  and  _327
REMARK  133  A    between atoms: _327  and  _328
REMARK  134  A    between atoms: _327  and  _330
REMARK  135  A    between atoms: _333  and  _335
REMARK  136  A    between atoms: _335  and  _336
REMARK  137  A    between atoms: _335  and  _338
REMARK  138  A    between atoms: _338  and  _339
REMARK  139  A    between atoms: _339  and  _340
REMARK  140  A    between atoms: _340  and  _341
REMARK  141  A    between atoms: _341  and  _342
REMARK  142  A    between atoms: _346  and  _348
REMARK  143  A    between atoms: _348  and  _349
REMARK  144  A    between atoms: _348  and  _351
REMARK  145  A    between atoms: _351  and  _352
REMARK  146  A    between atoms: _352  and  _353
REMARK  147  A    between atoms: _355  and  _357
REMARK  148  A    between atoms: _357  and  _358
REMARK  149  A    between atoms: _357  and  _360
REMARK  150  A    between atoms: _360  and  _361
REMARK  151  A    between atoms: _364  and  _366
REMARK  152  A    between atoms: _366  and  _367
REMARK  153  A    between atoms: _369  and  _371
REMARK  154  A    between atoms: _371  and  _372
REMARK  155  A    between atoms: _374  and  _376
REMARK  156  A    between atoms: _376  and  _377
REMARK  157  A    between atoms: _376  and  _379
REMARK  158  A    between atoms: _379  and  _380
REMARK  159  A    between atoms: _383  and  _385
REMARK  160  A    between atoms: _385  and  _386
REMARK  161  A    between atoms: _388  and  _390
REMARK  162  A    between atoms: _390  and  _391
REMARK  163  A    between atoms: _393  and  _395
REMARK  164  A    between atoms: _395  and  _396
REMARK  165  A    between atoms: _395  and  _398
REMARK  166  A    between atoms: _398  and  _399
REMARK  167  A    between atoms: _405  and  _407
REMARK  168  A    between atoms: _407  and  _408
REMARK  169  A    between atoms: _407  and  _410
REMARK  170  A    between atoms: _410  and  _411
REMARK  171  A    between atoms: _414  and  _416
REMARK  172  A    between atoms: _416  and  _417
REMARK  173  A    between atoms: _416  and  _419
REMARK  174  A    between atoms: _419  and  _420
REMARK  175  A    between atoms: _424  and  _425
REMARK  176  A    between atoms: _430  and  _432
REMARK  177  A    between atoms: _432  and  _433
REMARK  178  A    between atoms: _432  and  _435
REMARK  179  A    between atoms: _435  and  _436
REMARK  180  A    between atoms: _440  and  _441
REMARK  181  A    between atoms: _446  and  _448
REMARK  182  A    between atoms: _448  and  _449
REMARK  183  A    between atoms: _448  and  _451
REMARK  184  A    between atoms: _454  and  _456
REMARK  185  A    between atoms: _456  and  _457
REMARK  186  A    between atoms: _456  and  _459
REMARK  187  A    between atoms: _459  and  _460
REMARK  188  A    between atoms: _465  and  _467
REMARK  189  A    between atoms: _467  and  _468
REMARK  190  A    between atoms: _467  and  _470
REMARK  191  A    between atoms: _470  and  _471
REMARK  192  A    between atoms: _474  and  _476
REMARK  193  A    between atoms: _476  and  _477
REMARK  194  A    between atoms: _476  and  _479
REMARK  195  A    between atoms: _479  and  _480
REMARK  196  A    between atoms: _483  and  _485
REMARK  197  A    between atoms: _485  and  _486
REMARK  198  A    between atoms: _488  and  _490
REMARK  199  A    between atoms: _490  and  _491
REMARK  200  A    between atoms: _490  and  _493
REMARK  201  A    between atoms: _493  and  _494
REMARK  202  A    between atoms: _494  and  _495
REMARK  203  A    between atoms: _495  and  _496
REMARK  204  A    between atoms: _505  and  _507
REMARK  205  A    between atoms: _507  and  _508
REMARK  206  A    between atoms: _507  and  _510
REMARK  207  A    between atoms: _510  and  _511
REMARK                            x       y       z     vdW  Elec       q    Type
REMARK                         _______ _______ _______ _____ _____    ______ ____
ROOT
ATOM      1  O   HOH     1      22.364  18.431   9.795  0.00  0.00    +0.000 OA
ENDROOT
TORSDOF 0
REMARK  Name = ../refined-set-2016/3gi4/3gi4_pocket.pdb
REMARK  207 active torsions:
REMARK  status: ('A' for Active; 'I' for Inactive)
REMARK    1  A    between atoms: _1  and  _3
REMARK    2  A    between atoms: _3  and  _4
REMARK    3  A    between atoms: _3  and  _6
REMARK    4  A    between atoms: _6  and  _7
REMARK    5  A    between atoms: _7  and  _8
REMARK    6  A    between atoms: _8  and  _9
REMARK    7  A    between atoms: _18  and  _20
REMARK    8  A    between atoms: _20  and  _21
REMARK    9  A    between atoms: _20  and  _23
REMARK   10  A    between atoms: _23  and  _24
REMARK   11  A    between atoms: _27  and  _29
REMARK   12  A    between atoms: _29  and  _30
REMARK   13  A    between atoms: _29  and  _32
REMARK   14  A    between atoms: _32  and  _33
REMARK   15  A    between atoms: _36  and  _38
REMARK   16  A    between atoms: _38  and  _39
REMARK   17  A    between atoms: _38  and  _41
REMARK   18  A    between atoms: _41  and  _42
REMARK   19  A    between atoms: _45  and  _47
REMARK   20  A    between atoms: _47  and  _48
REMARK   21  A    between atoms: _47  and  _50
REMARK   22  A    between atoms: _50  and  _51
REMARK   23  A    between atoms: _54  and  _56
REMARK   24  A    between atoms: _56  and  _57
REMARK   25  A    between atoms: _59  and  _61
REMARK   26  A    between atoms: _61  and  _62
REMARK   27  A    between atoms: _65  and  _67
REMARK   28  A    between atoms: _67  and  _68
REMARK   29  A    between atoms: _67  and  _70
REMARK   30  A    between atoms: _70  and  _71
REMARK   31  A    between atoms: _74  and  _76
REMARK   32  A    between atoms: _76  and  _77
REMARK   33  A    between atoms: _76  and  _79
REMARK   34  A    between atoms: _79  and  _80
REMARK   35  A    between atoms: _83  and  _85
REMARK   36  A    between atoms: _85  and  _86
REMARK   37  A    between atoms: _85  and  _88
REMARK   38  A    between atoms: _88  and  _89
REMARK   39  A    between atoms: _92  and  _94
REMARK   40  A    between atoms: _94  and  _95
REMARK   41  A    between atoms: _94  and  _97
REMARK   42  A    between atoms: _100  and  _102
REMARK   43  A    between atoms: _102  and  _103
REMARK   44  A    between atoms: _102  and  _105
REMARK   45  A    between atoms: _105  and  _106
REMARK   46  A    between atoms: _109  and  _111
REMARK   47  A    between atoms: _111  and  _112
REMARK   48  A    between atoms: _114  and  _116
REMARK   49  A    between atoms: _116  and  _117
REMARK   50  A    between atoms: _119  and  _121
REMARK   51  A    between atoms: _121  and  _122
REMARK   52  A    between atoms: _121  and  _124
REMARK   53  A    between atoms: _124  and  _125
REMARK   54  A    between atoms: _128  and  _130
REMARK   55  A    between atoms: _130  and  _131
REMARK   56  A    between atoms: _133  and  _135
REMARK   57  A    between atoms: _135  and  _136
REMARK   58  A    between atoms: _138  and  _140
REMARK   59  A    between atoms: _140  and  _141
REMARK   60  A    between atoms: _140  and  _143
REMARK   61  A    between atoms: _143  and  _144
REMARK   62  A    between atoms: _150  and  _152
REMARK   63  A    between atoms: _152  and  _153
REMARK   64  A    between atoms: _152  and  _155
REMARK   65  A    between atoms: _155  and  _156
REMARK   66  A    between atoms: _159  and  _161
REMARK   67  A    between atoms: _161  and  _162
REMARK   68  A    between atoms: _161  and  _164
REMARK   69  A    between atoms: _164  and  _165
REMARK   70  A    between atoms: _169  and  _170
REMARK   71  A    between atoms: _175  and  _177
REMARK   72  A    between atoms: _177  and  _178
REMARK   73  A    between atoms: _177  and  _180
REMARK   74  A    between atoms: _183  and  _185
REMARK   75  A    between atoms: _185  and  _186
REMARK   76  A    between atoms: _185  and  _188
REMARK   77  A    between atoms: _188  and  _189
REMARK   78  A    between atoms: _194  and  _196
REMARK   79  A    between atoms: _196  and  _197
REMARK   80  A    between atoms: _196  and  _199
REMARK   81  A    between atoms: _199  and  _200
REMARK   82  A    between atoms: _203  and  _205
REMARK   83  A    between atoms: _205  and  _206
REMARK   84  A    between atoms: _205  and  _208
REMARK   85  A    between atoms: _208  and  _209
REMARK   86  A    between atoms: _212  and  _214
REMARK   87  A    between atoms: _214  and  _215
REMARK   88  A    between atoms: _217  and  _219
REMARK   89  A    between atoms: _219  and  _220
REMARK   90  A    between atoms: _219  and  _222
REMARK   91  A    between atoms: _222  and  _223
REMARK   92  A    between atoms: _223  and  _224
REMARK   93  A    between atoms: _224  and  _225
REMARK   94  A    between atoms: _234  and  _236
REMARK   95  A    between atoms: _236  and  _237
REMARK   96  A    between atoms: _236  and  _239
REMARK   97  A    between atoms: _239  and  _240
REMARK   98  A    between atoms: _240  and  _241
REMARK   99  A    between atoms: _241  and  _242
REMARK  100  A    between atoms: _251  and  _253
REMARK  101  A    between atoms: _253  and  _254
REMARK  102  A    between atoms: _253  and  _256
REMARK  103  A    between atoms: _256  and  _257
REMARK  104  A    between atoms: _260  and  _262
REMARK  105  A    between atoms: _262  and  _263
REMARK  106  A    between atoms: _262  and  _265
REMARK  107  A    between atoms: _265  and  _266
REMARK  108  A    between atoms: _269  and  _271
REMARK  109  A    between atoms: _271  and  _272
REMARK  110  A    between atoms: _271  and  _274
REMARK  111  A    between atoms: _274  and  _275
REMARK  112  A    between atoms: _278  and  _280
REMARK  113  A    between atoms: _280  and  _281
REMARK  114  A    between atoms: _280  and  _283
REMARK  115  A    between atoms: _283  and  _284
REMARK  116  A    between atoms: _287  and  _289
REMARK  117  A    between atoms: _289  and  _290
REMARK  118  A    between atoms: _292  and  _294
REMARK  119  A    between atoms: _294  and  _295
REMARK  120  A    between atoms: _298  and  _300
REMARK  121  A    between atoms: _300  and  _301
REMARK  122  A    between atoms: _300  and  _303
REMARK  123  A    between atoms: _303  and  _304
REMARK  124  A    between atoms: _307  and  _309
REMARK  125  A    between atoms: _309  and  _310
REMARK  126  A    between atoms: _309  and  _312
REMARK  127  A    between atoms: _312  and  _313
REMARK  128  A    between atoms: _316  and  _318
REMARK  129  A    between atoms: _318  and  _319
REMARK  130  A    between atoms: _318  and  _321
REMARK  131  A    between atoms: _321  and  _322
REMARK  132  A    between atoms: _325  and  _327
REMARK  133  A    between atoms: _327  and  _328
REMARK  134  A    between atoms: _327  and  _330
REMARK  135  A    between atoms: _333  and  _335
REMARK  136  A    between atoms: _335  and  _336
REMARK  137  A    between atoms: _335  and  _338
REMARK  138  A    between atoms: _338  and  _339
REMARK  139  A    between atoms: _339  and  _340
REMARK  140  A    between atoms: _340  and  _341
REMARK  141  A    between atoms: _341  and  _342
REMARK  142  A    between atoms: _346  and  _348
REMARK  143  A    between atoms: _348  and  _349
REMARK  144  A    between atoms: _348  and  _351
REMARK  145  A    between atoms: _351  and  _352
REMARK  146  A    between atoms: _352  and  _353
REMARK  147  A    between atoms: _355  and  _357
REMARK  148  A    between atoms: _357  and  _358
REMARK  149  A    between atoms: _357  and  _360
REMARK  150  A    between atoms: _360  and  _361
REMARK  151  A    between atoms: _364  and  _366
REMARK  152  A    between atoms: _366  and  _367
REMARK  153  A    between atoms: _369  and  _371
REMARK  154  A    between atoms: _371  and  _372
REMARK  155  A    between atoms: _374  and  _376
REMARK  156  A    between atoms: _376  and  _377
REMARK  157  A    between atoms: _376  and  _379
REMARK  158  A    between atoms: _379  and  _380
REMARK  159  A    between atoms: _383  and  _385
REMARK  160  A    between atoms: _385  and  _386
REMARK  161  A    between atoms: _388  and  _390
REMARK  162  A    between atoms: _390  and  _391
REMARK  163  A    between atoms: _393  and  _395
REMARK  164  A    between atoms: _395  and  _396
REMARK  165  A    between atoms: _395  and  _398
REMARK  166  A    between atoms: _398  and  _399
REMARK  167  A    between atoms: _405  and  _407
REMARK  168  A    between atoms: _407  and  _408
REMARK  169  A    between atoms: _407  and  _410
REMARK  170  A    between atoms: _410  and  _411
REMARK  171  A    between atoms: _414  and  _416
REMARK  172  A    between atoms: _416  and  _417
REMARK  173  A    between atoms: _416  and  _419
REMARK  174  A    between atoms: _419  and  _420
REMARK  175  A    between atoms: _424  and  _425
REMARK  176  A    between atoms: _430  and  _432
REMARK  177  A    between atoms: _432  and  _433
REMARK  178  A    between atoms: _432  and  _435
REMARK  179  A    between atoms: _435  and  _436
REMARK  180  A    between atoms: _440  and  _441
REMARK  181  A    between atoms: _446  and  _448
REMARK  182  A    between atoms: _448  and  _449
REMARK  183  A    between atoms: _448  and  _451
REMARK  184  A    between atoms: _454  and  _456
REMARK  185  A    between atoms: _456  and  _457
REMARK  186  A    between atoms: _456  and  _459
REMARK  187  A    between atoms: _459  and  _460
REMARK  188  A    between atoms: _465  and  _467
REMARK  189  A    between atoms: _467  and  _468
REMARK  190  A    between atoms: _467  and  _470
REMARK  191  A    between atoms: _470  and  _471
REMARK  192  A    between atoms: _474  and  _476
REMARK  193  A    between atoms: _476  and  _477
REMARK  194  A    between atoms: _476  and  _479
REMARK  195  A    between atoms: _479  and  _480
REMARK  196  A    between atoms: _483  and  _485
REMARK  197  A    between atoms: _485  and  _486
REMARK  198  A    between atoms: _488  and  _490
REMARK  199  A    between atoms: _490  and  _491
REMARK  200  A    between atoms: _490  and  _493
REMARK  201  A    between atoms: _493  and  _494
REMARK  202  A    between atoms: _494  and  _495
REMARK  203  A    between atoms: _495  and  _496
REMARK  204  A    between atoms: _505  and  _507
REMARK  205  A    between atoms: _507  and  _508
REMARK  206  A    between atoms: _507  and  _510
REMARK  207  A    between atoms: _510  and  _511
REMARK                            x       y       z     vdW  Elec       q    Type
REMARK                         _______ _______ _______ _____ _____    ______ ____
ROOT
ATOM      1  O   HOH     1      28.150  22.624   7.009  0.00  0.00    +0.000 OA
ENDROOT
TORSDOF 0
REMARK  Name = ../refined-set-2016/3gi4/3gi4_pocket.pdb
REMARK  207 active torsions:
REMARK  status: ('A' for Active; 'I' for Inactive)
REMARK    1  A    between atoms: _1  and  _3
REMARK    2  A    between atoms: _3  and  _4
REMARK    3  A    between atoms: _3  and  _6
REMARK    4  A    between atoms: _6  and  _7
REMARK    5  A    between atoms: _7  and  _8
REMARK    6  A    between atoms: _8  and  _9
REMARK    7  A    between atoms: _18  and  _20
REMARK    8  A    between atoms: _20  and  _21
REMARK    9  A    between atoms: _20  and  _23
REMARK   10  A    between atoms: _23  and  _24
REMARK   11  A    between atoms: _27  and  _29
REMARK   12  A    between atoms: _29  and  _30
REMARK   13  A    between atoms: _29  and  _32
REMARK   14  A    between atoms: _32  and  _33
REMARK   15  A    between atoms: _36  and  _38
REMARK   16  A    between atoms: _38  and  _39
REMARK   17  A    between atoms: _38  and  _41
REMARK   18  A    between atoms: _41  and  _42
REMARK   19  A    between atoms: _45  and  _47
REMARK   20  A    between atoms: _47  and  _48
REMARK   21  A    between atoms: _47  and  _50
REMARK   22  A    between atoms: _50  and  _51
REMARK   23  A    between atoms: _54  and  _56
REMARK   24  A    between atoms: _56  and  _57
REMARK   25  A    between atoms: _59  and  _61
REMARK   26  A    between atoms: _61  and  _62
REMARK   27  A    between atoms: _65  and  _67
REMARK   28  A    between atoms: _67  and  _68
REMARK   29  A    between atoms: _67  and  _70
REMARK   30  A    between atoms: _70  and  _71
REMARK   31  A    between atoms: _74  and  _76
REMARK   32  A    between atoms: _76  and  _77
REMARK   33  A    between atoms: _76  and  _79
REMARK   34  A    between atoms: _79  and  _80
REMARK   35  A    between atoms: _83  and  _85
REMARK   36  A    between atoms: _85  and  _86
REMARK   37  A    between atoms: _85  and  _88
REMARK   38  A    between atoms: _88  and  _89
REMARK   39  A    between atoms: _92  and  _94
REMARK   40  A    between atoms: _94  and  _95
REMARK   41  A    between atoms: _94  and  _97
REMARK   42  A    between atoms: _100  and  _102
REMARK   43  A    between atoms: _102  and  _103
REMARK   44  A    between atoms: _102  and  _105
REMARK   45  A    between atoms: _105  and  _106
REMARK   46  A    between atoms: _109  and  _111
REMARK   47  A    between atoms: _111  and  _112
REMARK   48  A    between atoms: _114  and  _116
REMARK   49  A    between atoms: _116  and  _117
REMARK   50  A    between atoms: _119  and  _121
REMARK   51  A    between atoms: _121  and  _122
REMARK   52  A    between atoms: _121  and  _124
REMARK   53  A    between atoms: _124  and  _125
REMARK   54  A    between atoms: _128  and  _130
REMARK   55  A    between atoms: _130  and  _131
REMARK   56  A    between atoms: _133  and  _135
REMARK   57  A    between atoms: _135  and  _136
REMARK   58  A    between atoms: _138  and  _140
REMARK   59  A    between atoms: _140  and  _141
REMARK   60  A    between atoms: _140  and  _143
REMARK   61  A    between atoms: _143  and  _144
REMARK   62  A    between atoms: _150  and  _152
REMARK   63  A    between atoms: _152  and  _153
REMARK   64  A    between atoms: _152  and  _155
REMARK   65  A    between atoms: _155  and  _156
REMARK   66  A    between atoms: _159  and  _161
REMARK   67  A    between atoms: _161  and  _162
REMARK   68  A    between atoms: _161  and  _164
REMARK   69  A    between atoms: _164  and  _165
REMARK   70  A    between atoms: _169  and  _170
REMARK   71  A    between atoms: _175  and  _177
REMARK   72  A    between atoms: _177  and  _178
REMARK   73  A    between atoms: _177  and  _180
REMARK   74  A    between atoms: _183  and  _185
REMARK   75  A    between atoms: _185  and  _186
REMARK   76  A    between atoms: _185  and  _188
REMARK   77  A    between atoms: _188  and  _189
REMARK   78  A    between atoms: _194  and  _196
REMARK   79  A    between atoms: _196  and  _197
REMARK   80  A    between atoms: _196  and  _199
REMARK   81  A    between atoms: _199  and  _200
REMARK   82  A    between atoms: _203  and  _205
REMARK   83  A    between atoms: _205  and  _206
REMARK   84  A    between atoms: _205  and  _208
REMARK   85  A    between atoms: _208  and  _209
REMARK   86  A    between atoms: _212  and  _214
REMARK   87  A    between atoms: _214  and  _215
REMARK   88  A    between atoms: _217  and  _219
REMARK   89  A    between atoms: _219  and  _220
REMARK   90  A    between atoms: _219  and  _222
REMARK   91  A    between atoms: _222  and  _223
REMARK   92  A    between atoms: _223  and  _224
REMARK   93  A    between atoms: _224  and  _225
REMARK   94  A    between atoms: _234  and  _236
REMARK   95  A    between atoms: _236  and  _237
REMARK   96  A    between atoms: _236  and  _239
REMARK   97  A    between atoms: _239  and  _240
REMARK   98  A    between atoms: _240  and  _241
REMARK   99  A    between atoms: _241  and  _242
REMARK  100  A    between atoms: _251  and  _253
REMARK  101  A    between atoms: _253  and  _254
REMARK  102  A    between atoms: _253  and  _256
REMARK  103  A    between atoms: _256  and  _257
REMARK  104  A    between atoms: _260  and  _262
REMARK  105  A    between atoms: _262  and  _263
REMARK  106  A    between atoms: _262  and  _265
REMARK  107  A    between atoms: _265  and  _266
REMARK  108  A    between atoms: _269  and  _271
REMARK  109  A    between atoms: _271  and  _272
REMARK  110  A    between atoms: _271  and  _274
REMARK  111  A    between atoms: _274  and  _275
REMARK  112  A    between atoms: _278  and  _280
REMARK  113  A    between atoms: _280  and  _281
REMARK  114  A    between atoms: _280  and  _283
REMARK  115  A    between atoms: _283  and  _284
REMARK  116  A    between atoms: _287  and  _289
REMARK  117  A    between atoms: _289  and  _290
REMARK  118  A    between atoms: _292  and  _294
REMARK  119  A    between atoms: _294  and  _295
REMARK  120  A    between atoms: _298  and  _300
REMARK  121  A    between atoms: _300  and  _301
REMARK  122  A    between atoms: _300  and  _303
REMARK  123  A    between atoms: _303  and  _304
REMARK  124  A    between atoms: _307  and  _309
REMARK  125  A    between atoms: _309  and  _310
REMARK  126  A    between atoms: _309  and  _312
REMARK  127  A    between atoms: _312  and  _313
REMARK  128  A    between atoms: _316  and  _318
REMARK  129  A    between atoms: _318  and  _319
REMARK  130  A    between atoms: _318  and  _321
REMARK  131  A    between atoms: _321  and  _322
REMARK  132  A    between atoms: _325  and  _327
REMARK  133  A    between atoms: _327  and  _328
REMARK  134  A    between atoms: _327  and  _330
REMARK  135  A    between atoms: _333  and  _335
REMARK  136  A    between atoms: _335  and  _336
REMARK  137  A    between atoms: _335  and  _338
REMARK  138  A    between atoms: _338  and  _339
REMARK  139  A    between atoms: _339  and  _340
REMARK  140  A    between atoms: _340  and  _341
REMARK  141  A    between atoms: _341  and  _342
REMARK  142  A    between atoms: _346  and  _348
REMARK  143  A    between atoms: _348  and  _349
REMARK  144  A    between atoms: _348  and  _351
REMARK  145  A    between atoms: _351  and  _352
REMARK  146  A    between atoms: _352  and  _353
REMARK  147  A    between atoms: _355  and  _357
REMARK  148  A    between atoms: _357  and  _358
REMARK  149  A    between atoms: _357  and  _360
REMARK  150  A    between atoms: _360  and  _361
REMARK  151  A    between atoms: _364  and  _366
REMARK  152  A    between atoms: _366  and  _367
REMARK  153  A    between atoms: _369  and  _371
REMARK  154  A    between atoms: _371  and  _372
REMARK  155  A    between atoms: _374  and  _376
REMARK  156  A    between atoms: _376  and  _377
REMARK  157  A    between atoms: _376  and  _379
REMARK  158  A    between atoms: _379  and  _380
REMARK  159  A    between atoms: _383  and  _385
REMARK  160  A    between atoms: _385  and  _386
REMARK  161  A    between atoms: _388  and  _390
REMARK  162  A    between atoms: _390  and  _391
REMARK  163  A    between atoms: _393  and  _395
REMARK  164  A    between atoms: _395  and  _396
REMARK  165  A    between atoms: _395  and  _398
REMARK  166  A    between atoms: _398  and  _399
REMARK  167  A    between atoms: _405  and  _407
REMARK  168  A    between atoms: _407  and  _408
REMARK  169  A    between atoms: _407  and  _410
REMARK  170  A    between atoms: _410  and  _411
REMARK  171  A    between atoms: _414  and  _416
REMARK  172  A    between atoms: _416  and  _417
REMARK  173  A    between atoms: _416  and  _419
REMARK  174  A    between atoms: _419  and  _420
REMARK  175  A    between atoms: _424  and  _425
REMARK  176  A    between atoms: _430  and  _432
REMARK  177  A    between atoms: _432  and  _433
REMARK  178  A    between atoms: _432  and  _435
REMARK  179  A    between atoms: _435  and  _436
REMARK  180  A    between atoms: _440  and  _441
REMARK  181  A    between atoms: _446  and  _448
REMARK  182  A    between atoms: _448  and  _449
REMARK  183  A    between atoms: _448  and  _451
REMARK  184  A    between atoms: _454  and  _456
REMARK  185  A    between atoms: _456  and  _457
REMARK  186  A    between atoms: _456  and  _459
REMARK  187  A    between atoms: _459  and  _460
REMARK  188  A    between atoms: _465  and  _467
REMARK  189  A    between atoms: _467  and  _468
REMARK  190  A    between atoms: _467  and  _470
REMARK  191  A    between atoms: _470  and  _471
REMARK  192  A    between atoms: _474  and  _476
REMARK  193  A    between atoms: _476  and  _477
REMARK  194  A    between atoms: _476  and  _479
REMARK  195  A    between atoms: _479  and  _480
REMARK  196  A    between atoms: _483  and  _485
REMARK  197  A    between atoms: _485  and  _486
REMARK  198  A    between atoms: _488  and  _490
REMARK  199  A    between atoms: _490  and  _491
REMARK  200  A    between atoms: _490  and  _493
REMARK  201  A    between atoms: _493  and  _494
REMARK  202  A    between atoms: _494  and  _495
REMARK  203  A    between atoms: _495  and  _496
REMARK  204  A    between atoms: _505  and  _507
REMARK  205  A    between atoms: _507  and  _508
REMARK  206  A    between atoms: _507  and  _510
REMARK  207  A    between atoms: _510  and  _511
REMARK                            x       y       z     vdW  Elec       q    Type
REMARK                         _______ _______ _______ _____ _____    ______ ____
ROOT
ATOM      1  O   HOH     1      26.711  19.996   9.364  0.00  0.00    +0.000 OA
ENDROOT
TORSDOF 0
REMARK  Name = ../refined-set-2016/3gi4/3gi4_pocket.pdb
REMARK  207 active torsions:
REMARK  status: ('A' for Active; 'I' for Inactive)
REMARK    1  A    between atoms: _1  and  _3
REMARK    2  A    between atoms: _3  and  _4
REMARK    3  A    between atoms: _3  and  _6
REMARK    4  A    between atoms: _6  and  _7
REMARK    5  A    between atoms: _7  and  _8
REMARK    6  A    between atoms: _8  and  _9
REMARK    7  A    between atoms: _18  and  _20
REMARK    8  A    between atoms: _20  and  _21
REMARK    9  A    between atoms: _20  and  _23
REMARK   10  A    between atoms: _23  and  _24
REMARK   11  A    between atoms: _27  and  _29
REMARK   12  A    between atoms: _29  and  _30
REMARK   13  A    between atoms: _29  and  _32
REMARK   14  A    between atoms: _32  and  _33
REMARK   15  A    between atoms: _36  and  _38
REMARK   16  A    between atoms: _38  and  _39
REMARK   17  A    between atoms: _38  and  _41
REMARK   18  A    between atoms: _41  and  _42
REMARK   19  A    between atoms: _45  and  _47
REMARK   20  A    between atoms: _47  and  _48
REMARK   21  A    between atoms: _47  and  _50
REMARK   22  A    between atoms: _50  and  _51
REMARK   23  A    between atoms: _54  and  _56
REMARK   24  A    between atoms: _56  and  _57
REMARK   25  A    between atoms: _59  and  _61
REMARK   26  A    between atoms: _61  and  _62
REMARK   27  A    between atoms: _65  and  _67
REMARK   28  A    between atoms: _67  and  _68
REMARK   29  A    between atoms: _67  and  _70
REMARK   30  A    between atoms: _70  and  _71
REMARK   31  A    between atoms: _74  and  _76
REMARK   32  A    between atoms: _76  and  _77
REMARK   33  A    between atoms: _76  and  _79
REMARK   34  A    between atoms: _79  and  _80
REMARK   35  A    between atoms: _83  and  _85
REMARK   36  A    between atoms: _85  and  _86
REMARK   37  A    between atoms: _85  and  _88
REMARK   38  A    between atoms: _88  and  _89
REMARK   39  A    between atoms: _92  and  _94
REMARK   40  A    between atoms: _94  and  _95
REMARK   41  A    between atoms: _94  and  _97
REMARK   42  A    between atoms: _100  and  _102
REMARK   43  A    between atoms: _102  and  _103
REMARK   44  A    between atoms: _102  and  _105
REMARK   45  A    between atoms: _105  and  _106
REMARK   46  A    between atoms: _109  and  _111
REMARK   47  A    between atoms: _111  and  _112
REMARK   48  A    between atoms: _114  and  _116
REMARK   49  A    between atoms: _116  and  _117
REMARK   50  A    between atoms: _119  and  _121
REMARK   51  A    between atoms: _121  and  _122
REMARK   52  A    between atoms: _121  and  _124
REMARK   53  A    between atoms: _124  and  _125
REMARK   54  A    between atoms: _128  and  _130
REMARK   55  A    between atoms: _130  and  _131
REMARK   56  A    between atoms: _133  and  _135
REMARK   57  A    between atoms: _135  and  _136
REMARK   58  A    between atoms: _138  and  _140
REMARK   59  A    between atoms: _140  and  _141
REMARK   60  A    between atoms: _140  and  _143
REMARK   61  A    between atoms: _143  and  _144
REMARK   62  A    between atoms: _150  and  _152
REMARK   63  A    between atoms: _152  and  _153
REMARK   64  A    between atoms: _152  and  _155
REMARK   65  A    between atoms: _155  and  _156
REMARK   66  A    between atoms: _159  and  _161
REMARK   67  A    between atoms: _161  and  _162
REMARK   68  A    between atoms: _161  and  _164
REMARK   69  A    between atoms: _164  and  _165
REMARK   70  A    between atoms: _169  and  _170
REMARK   71  A    between atoms: _175  and  _177
REMARK   72  A    between atoms: _177  and  _178
REMARK   73  A    between atoms: _177  and  _180
REMARK   74  A    between atoms: _183  and  _185
REMARK   75  A    between atoms: _185  and  _186
REMARK   76  A    between atoms: _185  and  _188
REMARK   77  A    between atoms: _188  and  _189
REMARK   78  A    between atoms: _194  and  _196
REMARK   79  A    between atoms: _196  and  _197
REMARK   80  A    between atoms: _196  and  _199
REMARK   81  A    between atoms: _199  and  _200
REMARK   82  A    between atoms: _203  and  _205
REMARK   83  A    between atoms: _205  and  _206
REMARK   84  A    between atoms: _205  and  _208
REMARK   85  A    between atoms: _208  and  _209
REMARK   86  A    between atoms: _212  and  _214
REMARK   87  A    between atoms: _214  and  _215
REMARK   88  A    between atoms: _217  and  _219
REMARK   89  A    between atoms: _219  and  _220
REMARK   90  A    between atoms: _219  and  _222
REMARK   91  A    between atoms: _222  and  _223
REMARK   92  A    between atoms: _223  and  _224
REMARK   93  A    between atoms: _224  and  _225
REMARK   94  A    between atoms: _234  and  _236
REMARK   95  A    between atoms: _236  and  _237
REMARK   96  A    between atoms: _236  and  _239
REMARK   97  A    between atoms: _239  and  _240
REMARK   98  A    between atoms: _240  and  _241
REMARK   99  A    between atoms: _241  and  _242
REMARK  100  A    between atoms: _251  and  _253
REMARK  101  A    between atoms: _253  and  _254
REMARK  102  A    between atoms: _253  and  _256
REMARK  103  A    between atoms: _256  and  _257
REMARK  104  A    between atoms: _260  and  _262
REMARK  105  A    between atoms: _262  and  _263
REMARK  106  A    between atoms: _262  and  _265
REMARK  107  A    between atoms: _265  and  _266
REMARK  108  A    between atoms: _269  and  _271
REMARK  109  A    between atoms: _271  and  _272
REMARK  110  A    between atoms: _271  and  _274
REMARK  111  A    between atoms: _274  and  _275
REMARK  112  A    between atoms: _278  and  _280
REMARK  113  A    between atoms: _280  and  _281
REMARK  114  A    between atoms: _280  and  _283
REMARK  115  A    between atoms: _283  and  _284
REMARK  116  A    between atoms: _287  and  _289
REMARK  117  A    between atoms: _289  and  _290
REMARK  118  A    between atoms: _292  and  _294
REMARK  119  A    between atoms: _294  and  _295
REMARK  120  A    between atoms: _298  and  _300
REMARK  121  A    between atoms: _300  and  _301
REMARK  122  A    between atoms: _300  and  _303
REMARK  123  A    between atoms: _303  and  _304
REMARK  124  A    between atoms: _307  and  _309
REMARK  125  A    between atoms: _309  and  _310
REMARK  126  A    between atoms: _309  and  _312
REMARK  127  A    between atoms: _312  and  _313
REMARK  128  A    between atoms: _316  and  _318
REMARK  129  A    between atoms: _318  and  _319
REMARK  130  A    between atoms: _318  and  _321
REMARK  131  A    between atoms: _321  and  _322
REMARK  132  A    between atoms: _325  and  _327
REMARK  133  A    between atoms: _327  and  _328
REMARK  134  A    between atoms: _327  and  _330
REMARK  135  A    between atoms: _333  and  _335
REMARK  136  A    between atoms: _335  and  _336
REMARK  137  A    between atoms: _335  and  _338
REMARK  138  A    between atoms: _338  and  _339
REMARK  139  A    between atoms: _339  and  _340
REMARK  140  A    between atoms: _340  and  _341
REMARK  141  A    between atoms: _341  and  _342
REMARK  142  A    between atoms: _346  and  _348
REMARK  143  A    between atoms: _348  and  _349
REMARK  144  A    between atoms: _348  and  _351
REMARK  145  A    between atoms: _351  and  _352
REMARK  146  A    between atoms: _352  and  _353
REMARK  147  A    between atoms: _355  and  _357
REMARK  148  A    between atoms: _357  and  _358
REMARK  149  A    between atoms: _357  and  _360
REMARK  150  A    between atoms: _360  and  _361
REMARK  151  A    between atoms: _364  and  _366
REMARK  152  A    between atoms: _366  and  _367
REMARK  153  A    between atoms: _369  and  _371
REMARK  154  A    between atoms: _371  and  _372
REMARK  155  A    between atoms: _374  and  _376
REMARK  156  A    between atoms: _376  and  _377
REMARK  157  A    between atoms: _376  and  _379
REMARK  158  A    between atoms: _379  and  _380
REMARK  159  A    between atoms: _383  and  _385
REMARK  160  A    between atoms: _385  and  _386
REMARK  161  A    between atoms: _388  and  _390
REMARK  162  A    between atoms: _390  and  _391
REMARK  163  A    between atoms: _393  and  _395
REMARK  164  A    between atoms: _395  and  _396
REMARK  165  A    between atoms: _395  and  _398
REMARK  166  A    between atoms: _398  and  _399
REMARK  167  A    between atoms: _405  and  _407
REMARK  168  A    between atoms: _407  and  _408
REMARK  169  A    between atoms: _407  and  _410
REMARK  170  A    between atoms: _410  and  _411
REMARK  171  A    between atoms: _414  and  _416
REMARK  172  A    between atoms: _416  and  _417
REMARK  173  A    between atoms: _416  and  _419
REMARK  174  A    between atoms: _419  and  _420
REMARK  175  A    between atoms: _424  and  _425
REMARK  176  A    between atoms: _430  and  _432
REMARK  177  A    between atoms: _432  and  _433
REMARK  178  A    between atoms: _432  and  _435
REMARK  179  A    between atoms: _435  and  _436
REMARK  180  A    between atoms: _440  and  _441
REMARK  181  A    between atoms: _446  and  _448
REMARK  182  A    between atoms: _448  and  _449
REMARK  183  A    between atoms: _448  and  _451
REMARK  184  A    between atoms: _454  and  _456
REMARK  185  A    between atoms: _456  and  _457
REMARK  186  A    between atoms: _456  and  _459
REMARK  187  A    between atoms: _459  and  _460
REMARK  188  A    between atoms: _465  and  _467
REMARK  189  A    between atoms: _467  and  _468
REMARK  190  A    between atoms: _467  and  _470
REMARK  191  A    between atoms: _470  and  _471
REMARK  192  A    between atoms: _474  and  _476
REMARK  193  A    between atoms: _476  and  _477
REMARK  194  A    between atoms: _476  and  _479
REMARK  195  A    between atoms: _479  and  _480
REMARK  196  A    between atoms: _483  and  _485
REMARK  197  A    between atoms: _485  and  _486
REMARK  198  A    between atoms: _488  and  _490
REMARK  199  A    between atoms: _490  and  _491
REMARK  200  A    between atoms: _490  and  _493
REMARK  201  A    between atoms: _493  and  _494
REMARK  202  A    between atoms: _494  and  _495
REMARK  203  A    between atoms: _495  and  _496
REMARK  204  A    between atoms: _505  and  _507
REMARK  205  A    between atoms: _507  and  _508
REMARK  206  A    between atoms: _507  and  _510
REMARK  207  A    between atoms: _510  and  _511
REMARK                            x       y       z     vdW  Elec       q    Type
REMARK                         _______ _______ _______ _____ _____    ______ ____
ROOT
ATOM      1  O   HOH     1      19.999  32.211  23.465  0.00  0.00    +0.000 OA
ENDROOT
TORSDOF 0
REMARK  Name = ../refined-set-2016/3gi4/3gi4_pocket.pdb
REMARK  207 active torsions:
REMARK  status: ('A' for Active; 'I' for Inactive)
REMARK    1  A    between atoms: _1  and  _3
REMARK    2  A    between atoms: _3  and  _4
REMARK    3  A    between atoms: _3  and  _6
REMARK    4  A    between atoms: _6  and  _7
REMARK    5  A    between atoms: _7  and  _8
REMARK    6  A    between atoms: _8  and  _9
REMARK    7  A    between atoms: _18  and  _20
REMARK    8  A    between atoms: _20  and  _21
REMARK    9  A    between atoms: _20  and  _23
REMARK   10  A    between atoms: _23  and  _24
REMARK   11  A    between atoms: _27  and  _29
REMARK   12  A    between atoms: _29  and  _30
REMARK   13  A    between atoms: _29  and  _32
REMARK   14  A    between atoms: _32  and  _33
REMARK   15  A    between atoms: _36  and  _38
REMARK   16  A    between atoms: _38  and  _39
REMARK   17  A    between atoms: _38  and  _41
REMARK   18  A    between atoms: _41  and  _42
REMARK   19  A    between atoms: _45  and  _47
REMARK   20  A    between atoms: _47  and  _48
REMARK   21  A    between atoms: _47  and  _50
REMARK   22  A    between atoms: _50  and  _51
REMARK   23  A    between atoms: _54  and  _56
REMARK   24  A    between atoms: _56  and  _57
REMARK   25  A    between atoms: _59  and  _61
REMARK   26  A    between atoms: _61  and  _62
REMARK   27  A    between atoms: _65  and  _67
REMARK   28  A    between atoms: _67  and  _68
REMARK   29  A    between atoms: _67  and  _70
REMARK   30  A    between atoms: _70  and  _71
REMARK   31  A    between atoms: _74  and  _76
REMARK   32  A    between atoms: _76  and  _77
REMARK   33  A    between atoms: _76  and  _79
REMARK   34  A    between atoms: _79  and  _80
REMARK   35  A    between atoms: _83  and  _85
REMARK   36  A    between atoms: _85  and  _86
REMARK   37  A    between atoms: _85  and  _88
REMARK   38  A    between atoms: _88  and  _89
REMARK   39  A    between atoms: _92  and  _94
REMARK   40  A    between atoms: _94  and  _95
REMARK   41  A    between atoms: _94  and  _97
REMARK   42  A    between atoms: _100  and  _102
REMARK   43  A    between atoms: _102  and  _103
REMARK   44  A    between atoms: _102  and  _105
REMARK   45  A    between atoms: _105  and  _106
REMARK   46  A    between atoms: _109  and  _111
REMARK   47  A    between atoms: _111  and  _112
REMARK   48  A    between atoms: _114  and  _116
REMARK   49  A    between atoms: _116  and  _117
REMARK   50  A    between atoms: _119  and  _121
REMARK   51  A    between atoms: _121  and  _122
REMARK   52  A    between atoms: _121  and  _124
REMARK   53  A    between atoms: _124  and  _125
REMARK   54  A    between atoms: _128  and  _130
REMARK   55  A    between atoms: _130  and  _131
REMARK   56  A    between atoms: _133  and  _135
REMARK   57  A    between atoms: _135  and  _136
REMARK   58  A    between atoms: _138  and  _140
REMARK   59  A    between atoms: _140  and  _141
REMARK   60  A    between atoms: _140  and  _143
REMARK   61  A    between atoms: _143  and  _144
REMARK   62  A    between atoms: _150  and  _152
REMARK   63  A    between atoms: _152  and  _153
REMARK   64  A    between atoms: _152  and  _155
REMARK   65  A    between atoms: _155  and  _156
REMARK   66  A    between atoms: _159  and  _161
REMARK   67  A    between atoms: _161  and  _162
REMARK   68  A    between atoms: _161  and  _164
REMARK   69  A    between atoms: _164  and  _165
REMARK   70  A    between atoms: _169  and  _170
REMARK   71  A    between atoms: _175  and  _177
REMARK   72  A    between atoms: _177  and  _178
REMARK   73  A    between atoms: _177  and  _180
REMARK   74  A    between atoms: _183  and  _185
REMARK   75  A    between atoms: _185  and  _186
REMARK   76  A    between atoms: _185  and  _188
REMARK   77  A    between atoms: _188  and  _189
REMARK   78  A    between atoms: _194  and  _196
REMARK   79  A    between atoms: _196  and  _197
REMARK   80  A    between atoms: _196  and  _199
REMARK   81  A    between atoms: _199  and  _200
REMARK   82  A    between atoms: _203  and  _205
REMARK   83  A    between atoms: _205  and  _206
REMARK   84  A    between atoms: _205  and  _208
REMARK   85  A    between atoms: _208  and  _209
REMARK   86  A    between atoms: _212  and  _214
REMARK   87  A    between atoms: _214  and  _215
REMARK   88  A    between atoms: _217  and  _219
REMARK   89  A    between atoms: _219  and  _220
REMARK   90  A    between atoms: _219  and  _222
REMARK   91  A    between atoms: _222  and  _223
REMARK   92  A    between atoms: _223  and  _224
REMARK   93  A    between atoms: _224  and  _225
REMARK   94  A    between atoms: _234  and  _236
REMARK   95  A    between atoms: _236  and  _237
REMARK   96  A    between atoms: _236  and  _239
REMARK   97  A    between atoms: _239  and  _240
REMARK   98  A    between atoms: _240  and  _241
REMARK   99  A    between atoms: _241  and  _242
REMARK  100  A    between atoms: _251  and  _253
REMARK  101  A    between atoms: _253  and  _254
REMARK  102  A    between atoms: _253  and  _256
REMARK  103  A    between atoms: _256  and  _257
REMARK  104  A    between atoms: _260  and  _262
REMARK  105  A    between atoms: _262  and  _263
REMARK  106  A    between atoms: _262  and  _265
REMARK  107  A    between atoms: _265  and  _266
REMARK  108  A    between atoms: _269  and  _271
REMARK  109  A    between atoms: _271  and  _272
REMARK  110  A    between atoms: _271  and  _274
REMARK  111  A    between atoms: _274  and  _275
REMARK  112  A    between atoms: _278  and  _280
REMARK  113  A    between atoms: _280  and  _281
REMARK  114  A    between atoms: _280  and  _283
REMARK  115  A    between atoms: _283  and  _284
REMARK  116  A    between atoms: _287  and  _289
REMARK  117  A    between atoms: _289  and  _290
REMARK  118  A    between atoms: _292  and  _294
REMARK  119  A    between atoms: _294  and  _295
REMARK  120  A    between atoms: _298  and  _300
REMARK  121  A    between atoms: _300  and  _301
REMARK  122  A    between atoms: _300  and  _303
REMARK  123  A    between atoms: _303  and  _304
REMARK  124  A    between atoms: _307  and  _309
REMARK  125  A    between atoms: _309  and  _310
REMARK  126  A    between atoms: _309  and  _312
REMARK  127  A    between atoms: _312  and  _313
REMARK  128  A    between atoms: _316  and  _318
REMARK  129  A    between atoms: _318  and  _319
REMARK  130  A    between atoms: _318  and  _321
REMARK  131  A    between atoms: _321  and  _322
REMARK  132  A    between atoms: _325  and  _327
REMARK  133  A    between atoms: _327  and  _328
REMARK  134  A    between atoms: _327  and  _330
REMARK  135  A    between atoms: _333  and  _335
REMARK  136  A    between atoms: _335  and  _336
REMARK  137  A    between atoms: _335  and  _338
REMARK  138  A    between atoms: _338  and  _339
REMARK  139  A    between atoms: _339  and  _340
REMARK  140  A    between atoms: _340  and  _341
REMARK  141  A    between atoms: _341  and  _342
REMARK  142  A    between atoms: _346  and  _348
REMARK  143  A    between atoms: _348  and  _349
REMARK  144  A    between atoms: _348  and  _351
REMARK  145  A    between atoms: _351  and  _352
REMARK  146  A    between atoms: _352  and  _353
REMARK  147  A    between atoms: _355  and  _357
REMARK  148  A    between atoms: _357  and  _358
REMARK  149  A    between atoms: _357  and  _360
REMARK  150  A    between atoms: _360  and  _361
REMARK  151  A    between atoms: _364  and  _366
REMARK  152  A    between atoms: _366  and  _367
REMARK  153  A    between atoms: _369  and  _371
REMARK  154  A    between atoms: _371  and  _372
REMARK  155  A    between atoms: _374  and  _376
REMARK  156  A    between atoms: _376  and  _377
REMARK  157  A    between atoms: _376  and  _379
REMARK  158  A    between atoms: _379  and  _380
REMARK  159  A    between atoms: _383  and  _385
REMARK  160  A    between atoms: _385  and  _386
REMARK  161  A    between atoms: _388  and  _390
REMARK  162  A    between atoms: _390  and  _391
REMARK  163  A    between atoms: _393  and  _395
REMARK  164  A    between atoms: _395  and  _396
REMARK  165  A    between atoms: _395  and  _398
REMARK  166  A    between atoms: _398  and  _399
REMARK  167  A    between atoms: _405  and  _407
REMARK  168  A    between atoms: _407  and  _408
REMARK  169  A    between atoms: _407  and  _410
REMARK  170  A    between atoms: _410  and  _411
REMARK  171  A    between atoms: _414  and  _416
REMARK  172  A    between atoms: _416  and  _417
REMARK  173  A    between atoms: _416  and  _419
REMARK  174  A    between atoms: _419  and  _420
REMARK  175  A    between atoms: _424  and  _425
REMARK  176  A    between atoms: _430  and  _432
REMARK  177  A    between atoms: _432  and  _433
REMARK  178  A    between atoms: _432  and  _435
REMARK  179  A    between atoms: _435  and  _436
REMARK  180  A    between atoms: _440  and  _441
REMARK  181  A    between atoms: _446  and  _448
REMARK  182  A    between atoms: _448  and  _449
REMARK  183  A    between atoms: _448  and  _451
REMARK  184  A    between atoms: _454  and  _456
REMARK  185  A    between atoms: _456  and  _457
REMARK  186  A    between atoms: _456  and  _459
REMARK  187  A    between atoms: _459  and  _460
REMARK  188  A    between atoms: _465  and  _467
REMARK  189  A    between atoms: _467  and  _468
REMARK  190  A    between atoms: _467  and  _470
REMARK  191  A    between atoms: _470  and  _471
REMARK  192  A    between atoms: _474  and  _476
REMARK  193  A    between atoms: _476  and  _477
REMARK  194  A    between atoms: _476  and  _479
REMARK  195  A    between atoms: _479  and  _480
REMARK  196  A    between atoms: _483  and  _485
REMARK  197  A    between atoms: _485  and  _486
REMARK  198  A    between atoms: _488  and  _490
REMARK  199  A    between atoms: _490  and  _491
REMARK  200  A    between atoms: _490  and  _493
REMARK  201  A    between atoms: _493  and  _494
REMARK  202  A    between atoms: _494  and  _495
REMARK  203  A    between atoms: _495  and  _496
REMARK  204  A    between atoms: _505  and  _507
REMARK  205  A    between atoms: _507  and  _508
REMARK  206  A    between atoms: _507  and  _510
REMARK  207  A    between atoms: _510  and  _511
REMARK                            x       y       z     vdW  Elec       q    Type
REMARK                         _______ _______ _______ _____ _____    ______ ____
ROOT
ATOM      1  O   HOH     1      17.040  22.778  11.316  0.00  0.00    +0.000 OA
ENDROOT
TORSDOF 0
REMARK  Name = ../refined-set-2016/3gi4/3gi4_pocket.pdb
REMARK  207 active torsions:
REMARK  status: ('A' for Active; 'I' for Inactive)
REMARK    1  A    between atoms: _1  and  _3
REMARK    2  A    between atoms: _3  and  _4
REMARK    3  A    between atoms: _3  and  _6
REMARK    4  A    between atoms: _6  and  _7
REMARK    5  A    between atoms: _7  and  _8
REMARK    6  A    between atoms: _8  and  _9
REMARK    7  A    between atoms: _18  and  _20
REMARK    8  A    between atoms: _20  and  _21
REMARK    9  A    between atoms: _20  and  _23
REMARK   10  A    between atoms: _23  and  _24
REMARK   11  A    between atoms: _27  and  _29
REMARK   12  A    between atoms: _29  and  _30
REMARK   13  A    between atoms: _29  and  _32
REMARK   14  A    between atoms: _32  and  _33
REMARK   15  A    between atoms: _36  and  _38
REMARK   16  A    between atoms: _38  and  _39
REMARK   17  A    between atoms: _38  and  _41
REMARK   18  A    between atoms: _41  and  _42
REMARK   19  A    between atoms: _45  and  _47
REMARK   20  A    between atoms: _47  and  _48
REMARK   21  A    between atoms: _47  and  _50
REMARK   22  A    between atoms: _50  and  _51
REMARK   23  A    between atoms: _54  and  _56
REMARK   24  A    between atoms: _56  and  _57
REMARK   25  A    between atoms: _59  and  _61
REMARK   26  A    between atoms: _61  and  _62
REMARK   27  A    between atoms: _65  and  _67
REMARK   28  A    between atoms: _67  and  _68
REMARK   29  A    between atoms: _67  and  _70
REMARK   30  A    between atoms: _70  and  _71
REMARK   31  A    between atoms: _74  and  _76
REMARK   32  A    between atoms: _76  and  _77
REMARK   33  A    between atoms: _76  and  _79
REMARK   34  A    between atoms: _79  and  _80
REMARK   35  A    between atoms: _83  and  _85
REMARK   36  A    between atoms: _85  and  _86
REMARK   37  A    between atoms: _85  and  _88
REMARK   38  A    between atoms: _88  and  _89
REMARK   39  A    between atoms: _92  and  _94
REMARK   40  A    between atoms: _94  and  _95
REMARK   41  A    between atoms: _94  and  _97
REMARK   42  A    between atoms: _100  and  _102
REMARK   43  A    between atoms: _102  and  _103
REMARK   44  A    between atoms: _102  and  _105
REMARK   45  A    between atoms: _105  and  _106
REMARK   46  A    between atoms: _109  and  _111
REMARK   47  A    between atoms: _111  and  _112
REMARK   48  A    between atoms: _114  and  _116
REMARK   49  A    between atoms: _116  and  _117
REMARK   50  A    between atoms: _119  and  _121
REMARK   51  A    between atoms: _121  and  _122
REMARK   52  A    between atoms: _121  and  _124
REMARK   53  A    between atoms: _124  and  _125
REMARK   54  A    between atoms: _128  and  _130
REMARK   55  A    between atoms: _130  and  _131
REMARK   56  A    between atoms: _133  and  _135
REMARK   57  A    between atoms: _135  and  _136
REMARK   58  A    between atoms: _138  and  _140
REMARK   59  A    between atoms: _140  and  _141
REMARK   60  A    between atoms: _140  and  _143
REMARK   61  A    between atoms: _143  and  _144
REMARK   62  A    between atoms: _150  and  _152
REMARK   63  A    between atoms: _152  and  _153
REMARK   64  A    between atoms: _152  and  _155
REMARK   65  A    between atoms: _155  and  _156
REMARK   66  A    between atoms: _159  and  _161
REMARK   67  A    between atoms: _161  and  _162
REMARK   68  A    between atoms: _161  and  _164
REMARK   69  A    between atoms: _164  and  _165
REMARK   70  A    between atoms: _169  and  _170
REMARK   71  A    between atoms: _175  and  _177
REMARK   72  A    between atoms: _177  and  _178
REMARK   73  A    between atoms: _177  and  _180
REMARK   74  A    between atoms: _183  and  _185
REMARK   75  A    between atoms: _185  and  _186
REMARK   76  A    between atoms: _185  and  _188
REMARK   77  A    between atoms: _188  and  _189
REMARK   78  A    between atoms: _194  and  _196
REMARK   79  A    between atoms: _196  and  _197
REMARK   80  A    between atoms: _196  and  _199
REMARK   81  A    between atoms: _199  and  _200
REMARK   82  A    between atoms: _203  and  _205
REMARK   83  A    between atoms: _205  and  _206
REMARK   84  A    between atoms: _205  and  _208
REMARK   85  A    between atoms: _208  and  _209
REMARK   86  A    between atoms: _212  and  _214
REMARK   87  A    between atoms: _214  and  _215
REMARK   88  A    between atoms: _217  and  _219
REMARK   89  A    between atoms: _219  and  _220
REMARK   90  A    between atoms: _219  and  _222
REMARK   91  A    between atoms: _222  and  _223
REMARK   92  A    between atoms: _223  and  _224
REMARK   93  A    between atoms: _224  and  _225
REMARK   94  A    between atoms: _234  and  _236
REMARK   95  A    between atoms: _236  and  _237
REMARK   96  A    between atoms: _236  and  _239
REMARK   97  A    between atoms: _239  and  _240
REMARK   98  A    between atoms: _240  and  _241
REMARK   99  A    between atoms: _241  and  _242
REMARK  100  A    between atoms: _251  and  _253
REMARK  101  A    between atoms: _253  and  _254
REMARK  102  A    between atoms: _253  and  _256
REMARK  103  A    between atoms: _256  and  _257
REMARK  104  A    between atoms: _260  and  _262
REMARK  105  A    between atoms: _262  and  _263
REMARK  106  A    between atoms: _262  and  _265
REMARK  107  A    between atoms: _265  and  _266
REMARK  108  A    between atoms: _269  and  _271
REMARK  109  A    between atoms: _271  and  _272
REMARK  110  A    between atoms: _271  and  _274
REMARK  111  A    between atoms: _274  and  _275
REMARK  112  A    between atoms: _278  and  _280
REMARK  113  A    between atoms: _280  and  _281
REMARK  114  A    between atoms: _280  and  _283
REMARK  115  A    between atoms: _283  and  _284
REMARK  116  A    between atoms: _287  and  _289
REMARK  117  A    between atoms: _289  and  _290
REMARK  118  A    between atoms: _292  and  _294
REMARK  119  A    between atoms: _294  and  _295
REMARK  120  A    between atoms: _298  and  _300
REMARK  121  A    between atoms: _300  and  _301
REMARK  122  A    between atoms: _300  and  _303
REMARK  123  A    between atoms: _303  and  _304
REMARK  124  A    between atoms: _307  and  _309
REMARK  125  A    between atoms: _309  and  _310
REMARK  126  A    between atoms: _309  and  _312
REMARK  127  A    between atoms: _312  and  _313
REMARK  128  A    between atoms: _316  and  _318
REMARK  129  A    between atoms: _318  and  _319
REMARK  130  A    between atoms: _318  and  _321
REMARK  131  A    between atoms: _321  and  _322
REMARK  132  A    between atoms: _325  and  _327
REMARK  133  A    between atoms: _327  and  _328
REMARK  134  A    between atoms: _327  and  _330
REMARK  135  A    between atoms: _333  and  _335
REMARK  136  A    between atoms: _335  and  _336
REMARK  137  A    between atoms: _335  and  _338
REMARK  138  A    between atoms: _338  and  _339
REMARK  139  A    between atoms: _339  and  _340
REMARK  140  A    between atoms: _340  and  _341
REMARK  141  A    between atoms: _341  and  _342
REMARK  142  A    between atoms: _346  and  _348
REMARK  143  A    between atoms: _348  and  _349
REMARK  144  A    between atoms: _348  and  _351
REMARK  145  A    between atoms: _351  and  _352
REMARK  146  A    between atoms: _352  and  _353
REMARK  147  A    between atoms: _355  and  _357
REMARK  148  A    between atoms: _357  and  _358
REMARK  149  A    between atoms: _357  and  _360
REMARK  150  A    between atoms: _360  and  _361
REMARK  151  A    between atoms: _364  and  _366
REMARK  152  A    between atoms: _366  and  _367
REMARK  153  A    between atoms: _369  and  _371
REMARK  154  A    between atoms: _371  and  _372
REMARK  155  A    between atoms: _374  and  _376
REMARK  156  A    between atoms: _376  and  _377
REMARK  157  A    between atoms: _376  and  _379
REMARK  158  A    between atoms: _379  and  _380
REMARK  159  A    between atoms: _383  and  _385
REMARK  160  A    between atoms: _385  and  _386
REMARK  161  A    between atoms: _388  and  _390
REMARK  162  A    between atoms: _390  and  _391
REMARK  163  A    between atoms: _393  and  _395
REMARK  164  A    between atoms: _395  and  _396
REMARK  165  A    between atoms: _395  and  _398
REMARK  166  A    between atoms: _398  and  _399
REMARK  167  A    between atoms: _405  and  _407
REMARK  168  A    between atoms: _407  and  _408
REMARK  169  A    between atoms: _407  and  _410
REMARK  170  A    between atoms: _410  and  _411
REMARK  171  A    between atoms: _414  and  _416
REMARK  172  A    between atoms: _416  and  _417
REMARK  173  A    between atoms: _416  and  _419
REMARK  174  A    between atoms: _419  and  _420
REMARK  175  A    between atoms: _424  and  _425
REMARK  176  A    between atoms: _430  and  _432
REMARK  177  A    between atoms: _432  and  _433
REMARK  178  A    between atoms: _432  and  _435
REMARK  179  A    between atoms: _435  and  _436
REMARK  180  A    between atoms: _440  and  _441
REMARK  181  A    between atoms: _446  and  _448
REMARK  182  A    between atoms: _448  and  _449
REMARK  183  A    between atoms: _448  and  _451
REMARK  184  A    between atoms: _454  and  _456
REMARK  185  A    between atoms: _456  and  _457
REMARK  186  A    between atoms: _456  and  _459
REMARK  187  A    between atoms: _459  and  _460
REMARK  188  A    between atoms: _465  and  _467
REMARK  189  A    between atoms: _467  and  _468
REMARK  190  A    between atoms: _467  and  _470
REMARK  191  A    between atoms: _470  and  _471
REMARK  192  A    between atoms: _474  and  _476
REMARK  193  A    between atoms: _476  and  _477
REMARK  194  A    between atoms: _476  and  _479
REMARK  195  A    between atoms: _479  and  _480
REMARK  196  A    between atoms: _483  and  _485
REMARK  197  A    between atoms: _485  and  _486
REMARK  198  A    between atoms: _488  and  _490
REMARK  199  A    between atoms: _490  and  _491
REMARK  200  A    between atoms: _490  and  _493
REMARK  201  A    between atoms: _493  and  _494
REMARK  202  A    between atoms: _494  and  _495
REMARK  203  A    between atoms: _495  and  _496
REMARK  204  A    between atoms: _505  and  _507
REMARK  205  A    between atoms: _507  and  _508
REMARK  206  A    between atoms: _507  and  _510
REMARK  207  A    between atoms: _510  and  _511
REMARK                            x       y       z     vdW  Elec       q    Type
REMARK                         _______ _______ _______ _____ _____    ______ ____
ROOT
ATOM      1  O   HOH     1       9.089  34.609  21.350  0.00  0.00    +0.000 OA
ENDROOT
TORSDOF 0
REMARK  Name = ../refined-set-2016/3gi4/3gi4_pocket.pdb
REMARK  207 active torsions:
REMARK  status: ('A' for Active; 'I' for Inactive)
REMARK    1  A    between atoms: _1  and  _3
REMARK    2  A    between atoms: _3  and  _4
REMARK    3  A    between atoms: _3  and  _6
REMARK    4  A    between atoms: _6  and  _7
REMARK    5  A    between atoms: _7  and  _8
REMARK    6  A    between atoms: _8  and  _9
REMARK    7  A    between atoms: _18  and  _20
REMARK    8  A    between atoms: _20  and  _21
REMARK    9  A    between atoms: _20  and  _23
REMARK   10  A    between atoms: _23  and  _24
REMARK   11  A    between atoms: _27  and  _29
REMARK   12  A    between atoms: _29  and  _30
REMARK   13  A    between atoms: _29  and  _32
REMARK   14  A    between atoms: _32  and  _33
REMARK   15  A    between atoms: _36  and  _38
REMARK   16  A    between atoms: _38  and  _39
REMARK   17  A    between atoms: _38  and  _41
REMARK   18  A    between atoms: _41  and  _42
REMARK   19  A    between atoms: _45  and  _47
REMARK   20  A    between atoms: _47  and  _48
REMARK   21  A    between atoms: _47  and  _50
REMARK   22  A    between atoms: _50  and  _51
REMARK   23  A    between atoms: _54  and  _56
REMARK   24  A    between atoms: _56  and  _57
REMARK   25  A    between atoms: _59  and  _61
REMARK   26  A    between atoms: _61  and  _62
REMARK   27  A    between atoms: _65  and  _67
REMARK   28  A    between atoms: _67  and  _68
REMARK   29  A    between atoms: _67  and  _70
REMARK   30  A    between atoms: _70  and  _71
REMARK   31  A    between atoms: _74  and  _76
REMARK   32  A    between atoms: _76  and  _77
REMARK   33  A    between atoms: _76  and  _79
REMARK   34  A    between atoms: _79  and  _80
REMARK   35  A    between atoms: _83  and  _85
REMARK   36  A    between atoms: _85  and  _86
REMARK   37  A    between atoms: _85  and  _88
REMARK   38  A    between atoms: _88  and  _89
REMARK   39  A    between atoms: _92  and  _94
REMARK   40  A    between atoms: _94  and  _95
REMARK   41  A    between atoms: _94  and  _97
REMARK   42  A    between atoms: _100  and  _102
REMARK   43  A    between atoms: _102  and  _103
REMARK   44  A    between atoms: _102  and  _105
REMARK   45  A    between atoms: _105  and  _106
REMARK   46  A    between atoms: _109  and  _111
REMARK   47  A    between atoms: _111  and  _112
REMARK   48  A    between atoms: _114  and  _116
REMARK   49  A    between atoms: _116  and  _117
REMARK   50  A    between atoms: _119  and  _121
REMARK   51  A    between atoms: _121  and  _122
REMARK   52  A    between atoms: _121  and  _124
REMARK   53  A    between atoms: _124  and  _125
REMARK   54  A    between atoms: _128  and  _130
REMARK   55  A    between atoms: _130  and  _131
REMARK   56  A    between atoms: _133  and  _135
REMARK   57  A    between atoms: _135  and  _136
REMARK   58  A    between atoms: _138  and  _140
REMARK   59  A    between atoms: _140  and  _141
REMARK   60  A    between atoms: _140  and  _143
REMARK   61  A    between atoms: _143  and  _144
REMARK   62  A    between atoms: _150  and  _152
REMARK   63  A    between atoms: _152  and  _153
REMARK   64  A    between atoms: _152  and  _155
REMARK   65  A    between atoms: _155  and  _156
REMARK   66  A    between atoms: _159  and  _161
REMARK   67  A    between atoms: _161  and  _162
REMARK   68  A    between atoms: _161  and  _164
REMARK   69  A    between atoms: _164  and  _165
REMARK   70  A    between atoms: _169  and  _170
REMARK   71  A    between atoms: _175  and  _177
REMARK   72  A    between atoms: _177  and  _178
REMARK   73  A    between atoms: _177  and  _180
REMARK   74  A    between atoms: _183  and  _185
REMARK   75  A    between atoms: _185  and  _186
REMARK   76  A    between atoms: _185  and  _188
REMARK   77  A    between atoms: _188  and  _189
REMARK   78  A    between atoms: _194  and  _196
REMARK   79  A    between atoms: _196  and  _197
REMARK   80  A    between atoms: _196  and  _199
REMARK   81  A    between atoms: _199  and  _200
REMARK   82  A    between atoms: _203  and  _205
REMARK   83  A    between atoms: _205  and  _206
REMARK   84  A    between atoms: _205  and  _208
REMARK   85  A    between atoms: _208  and  _209
REMARK   86  A    between atoms: _212  and  _214
REMARK   87  A    between atoms: _214  and  _215
REMARK   88  A    between atoms: _217  and  _219
REMARK   89  A    between atoms: _219  and  _220
REMARK   90  A    between atoms: _219  and  _222
REMARK   91  A    between atoms: _222  and  _223
REMARK   92  A    between atoms: _223  and  _224
REMARK   93  A    between atoms: _224  and  _225
REMARK   94  A    between atoms: _234  and  _236
REMARK   95  A    between atoms: _236  and  _237
REMARK   96  A    between atoms: _236  and  _239
REMARK   97  A    between atoms: _239  and  _240
REMARK   98  A    between atoms: _240  and  _241
REMARK   99  A    between atoms: _241  and  _242
REMARK  100  A    between atoms: _251  and  _253
REMARK  101  A    between atoms: _253  and  _254
REMARK  102  A    between atoms: _253  and  _256
REMARK  103  A    between atoms: _256  and  _257
REMARK  104  A    between atoms: _260  and  _262
REMARK  105  A    between atoms: _262  and  _263
REMARK  106  A    between atoms: _262  and  _265
REMARK  107  A    between atoms: _265  and  _266
REMARK  108  A    between atoms: _269  and  _271
REMARK  109  A    between atoms: _271  and  _272
REMARK  110  A    between atoms: _271  and  _274
REMARK  111  A    between atoms: _274  and  _275
REMARK  112  A    between atoms: _278  and  _280
REMARK  113  A    between atoms: _280  and  _281
REMARK  114  A    between atoms: _280  and  _283
REMARK  115  A    between atoms: _283  and  _284
REMARK  116  A    between atoms: _287  and  _289
REMARK  117  A    between atoms: _289  and  _290
REMARK  118  A    between atoms: _292  and  _294
REMARK  119  A    between atoms: _294  and  _295
REMARK  120  A    between atoms: _298  and  _300
REMARK  121  A    between atoms: _300  and  _301
REMARK  122  A    between atoms: _300  and  _303
REMARK  123  A    between atoms: _303  and  _304
REMARK  124  A    between atoms: _307  and  _309
REMARK  125  A    between atoms: _309  and  _310
REMARK  126  A    between atoms: _309  and  _312
REMARK  127  A    between atoms: _312  and  _313
REMARK  128  A    between atoms: _316  and  _318
REMARK  129  A    between atoms: _318  and  _319
REMARK  130  A    between atoms: _318  and  _321
REMARK  131  A    between atoms: _321  and  _322
REMARK  132  A    between atoms: _325  and  _327
REMARK  133  A    between atoms: _327  and  _328
REMARK  134  A    between atoms: _327  and  _330
REMARK  135  A    between atoms: _333  and  _335
REMARK  136  A    between atoms: _335  and  _336
REMARK  137  A    between atoms: _335  and  _338
REMARK  138  A    between atoms: _338  and  _339
REMARK  139  A    between atoms: _339  and  _340
REMARK  140  A    between atoms: _340  and  _341
REMARK  141  A    between atoms: _341  and  _342
REMARK  142  A    between atoms: _346  and  _348
REMARK  143  A    between atoms: _348  and  _349
REMARK  144  A    between atoms: _348  and  _351
REMARK  145  A    between atoms: _351  and  _352
REMARK  146  A    between atoms: _352  and  _353
REMARK  147  A    between atoms: _355  and  _357
REMARK  148  A    between atoms: _357  and  _358
REMARK  149  A    between atoms: _357  and  _360
REMARK  150  A    between atoms: _360  and  _361
REMARK  151  A    between atoms: _364  and  _366
REMARK  152  A    between atoms: _366  and  _367
REMARK  153  A    between atoms: _369  and  _371
REMARK  154  A    between atoms: _371  and  _372
REMARK  155  A    between atoms: _374  and  _376
REMARK  156  A    between atoms: _376  and  _377
REMARK  157  A    between atoms: _376  and  _379
REMARK  158  A    between atoms: _379  and  _380
REMARK  159  A    between atoms: _383  and  _385
REMARK  160  A    between atoms: _385  and  _386
REMARK  161  A    between atoms: _388  and  _390
REMARK  162  A    between atoms: _390  and  _391
REMARK  163  A    between atoms: _393  and  _395
REMARK  164  A    between atoms: _395  and  _396
REMARK  165  A    between atoms: _395  and  _398
REMARK  166  A    between atoms: _398  and  _399
REMARK  167  A    between atoms: _405  and  _407
REMARK  168  A    between atoms: _407  and  _408
REMARK  169  A    between atoms: _407  and  _410
REMARK  170  A    between atoms: _410  and  _411
REMARK  171  A    between atoms: _414  and  _416
REMARK  172  A    between atoms: _416  and  _417
REMARK  173  A    between atoms: _416  and  _419
REMARK  174  A    between atoms: _419  and  _420
REMARK  175  A    between atoms: _424  and  _425
REMARK  176  A    between atoms: _430  and  _432
REMARK  177  A    between atoms: _432  and  _433
REMARK  178  A    between atoms: _432  and  _435
REMARK  179  A    between atoms: _435  and  _436
REMARK  180  A    between atoms: _440  and  _441
REMARK  181  A    between atoms: _446  and  _448
REMARK  182  A    between atoms: _448  and  _449
REMARK  183  A    between atoms: _448  and  _451
REMARK  184  A    between atoms: _454  and  _456
REMARK  185  A    between atoms: _456  and  _457
REMARK  186  A    between atoms: _456  and  _459
REMARK  187  A    between atoms: _459  and  _460
REMARK  188  A    between atoms: _465  and  _467
REMARK  189  A    between atoms: _467  and  _468
REMARK  190  A    between atoms: _467  and  _470
REMARK  191  A    between atoms: _470  and  _471
REMARK  192  A    between atoms: _474  and  _476
REMARK  193  A    between atoms: _476  and  _477
REMARK  194  A    between atoms: _476  and  _479
REMARK  195  A    between atoms: _479  and  _480
REMARK  196  A    between atoms: _483  and  _485
REMARK  197  A    between atoms: _485  and  _486
REMARK  198  A    between atoms: _488  and  _490
REMARK  199  A    between atoms: _490  and  _491
REMARK  200  A    between atoms: _490  and  _493
REMARK  201  A    between atoms: _493  and  _494
REMARK  202  A    between atoms: _494  and  _495
REMARK  203  A    between atoms: _495  and  _496
REMARK  204  A    between atoms: _505  and  _507
REMARK  205  A    between atoms: _507  and  _508
REMARK  206  A    between atoms: _507  and  _510
REMARK  207  A    between atoms: _510  and  _511
REMARK                            x       y       z     vdW  Elec       q    Type
REMARK                         _______ _______ _______ _____ _____    ______ ____
ROOT
ATOM      1  O   HOH     1      14.085  34.997  26.002  0.00  0.00    +0.000 OA
ENDROOT
TORSDOF 0
REMARK  Name = ../refined-set-2016/3gi4/3gi4_pocket.pdb
REMARK  207 active torsions:
REMARK  status: ('A' for Active; 'I' for Inactive)
REMARK    1  A    between atoms: _1  and  _3
REMARK    2  A    between atoms: _3  and  _4
REMARK    3  A    between atoms: _3  and  _6
REMARK    4  A    between atoms: _6  and  _7
REMARK    5  A    between atoms: _7  and  _8
REMARK    6  A    between atoms: _8  and  _9
REMARK    7  A    between atoms: _18  and  _20
REMARK    8  A    between atoms: _20  and  _21
REMARK    9  A    between atoms: _20  and  _23
REMARK   10  A    between atoms: _23  and  _24
REMARK   11  A    between atoms: _27  and  _29
REMARK   12  A    between atoms: _29  and  _30
REMARK   13  A    between atoms: _29  and  _32
REMARK   14  A    between atoms: _32  and  _33
REMARK   15  A    between atoms: _36  and  _38
REMARK   16  A    between atoms: _38  and  _39
REMARK   17  A    between atoms: _38  and  _41
REMARK   18  A    between atoms: _41  and  _42
REMARK   19  A    between atoms: _45  and  _47
REMARK   20  A    between atoms: _47  and  _48
REMARK   21  A    between atoms: _47  and  _50
REMARK   22  A    between atoms: _50  and  _51
REMARK   23  A    between atoms: _54  and  _56
REMARK   24  A    between atoms: _56  and  _57
REMARK   25  A    between atoms: _59  and  _61
REMARK   26  A    between atoms: _61  and  _62
REMARK   27  A    between atoms: _65  and  _67
REMARK   28  A    between atoms: _67  and  _68
REMARK   29  A    between atoms: _67  and  _70
REMARK   30  A    between atoms: _70  and  _71
REMARK   31  A    between atoms: _74  and  _76
REMARK   32  A    between atoms: _76  and  _77
REMARK   33  A    between atoms: _76  and  _79
REMARK   34  A    between atoms: _79  and  _80
REMARK   35  A    between atoms: _83  and  _85
REMARK   36  A    between atoms: _85  and  _86
REMARK   37  A    between atoms: _85  and  _88
REMARK   38  A    between atoms: _88  and  _89
REMARK   39  A    between atoms: _92  and  _94
REMARK   40  A    between atoms: _94  and  _95
REMARK   41  A    between atoms: _94  and  _97
REMARK   42  A    between atoms: _100  and  _102
REMARK   43  A    between atoms: _102  and  _103
REMARK   44  A    between atoms: _102  and  _105
REMARK   45  A    between atoms: _105  and  _106
REMARK   46  A    between atoms: _109  and  _111
REMARK   47  A    between atoms: _111  and  _112
REMARK   48  A    between atoms: _114  and  _116
REMARK   49  A    between atoms: _116  and  _117
REMARK   50  A    between atoms: _119  and  _121
REMARK   51  A    between atoms: _121  and  _122
REMARK   52  A    between atoms: _121  and  _124
REMARK   53  A    between atoms: _124  and  _125
REMARK   54  A    between atoms: _128  and  _130
REMARK   55  A    between atoms: _130  and  _131
REMARK   56  A    between atoms: _133  and  _135
REMARK   57  A    between atoms: _135  and  _136
REMARK   58  A    between atoms: _138  and  _140
REMARK   59  A    between atoms: _140  and  _141
REMARK   60  A    between atoms: _140  and  _143
REMARK   61  A    between atoms: _143  and  _144
REMARK   62  A    between atoms: _150  and  _152
REMARK   63  A    between atoms: _152  and  _153
REMARK   64  A    between atoms: _152  and  _155
REMARK   65  A    between atoms: _155  and  _156
REMARK   66  A    between atoms: _159  and  _161
REMARK   67  A    between atoms: _161  and  _162
REMARK   68  A    between atoms: _161  and  _164
REMARK   69  A    between atoms: _164  and  _165
REMARK   70  A    between atoms: _169  and  _170
REMARK   71  A    between atoms: _175  and  _177
REMARK   72  A    between atoms: _177  and  _178
REMARK   73  A    between atoms: _177  and  _180
REMARK   74  A    between atoms: _183  and  _185
REMARK   75  A    between atoms: _185  and  _186
REMARK   76  A    between atoms: _185  and  _188
REMARK   77  A    between atoms: _188  and  _189
REMARK   78  A    between atoms: _194  and  _196
REMARK   79  A    between atoms: _196  and  _197
REMARK   80  A    between atoms: _196  and  _199
REMARK   81  A    between atoms: _199  and  _200
REMARK   82  A    between atoms: _203  and  _205
REMARK   83  A    between atoms: _205  and  _206
REMARK   84  A    between atoms: _205  and  _208
REMARK   85  A    between atoms: _208  and  _209
REMARK   86  A    between atoms: _212  and  _214
REMARK   87  A    between atoms: _214  and  _215
REMARK   88  A    between atoms: _217  and  _219
REMARK   89  A    between atoms: _219  and  _220
REMARK   90  A    between atoms: _219  and  _222
REMARK   91  A    between atoms: _222  and  _223
REMARK   92  A    between atoms: _223  and  _224
REMARK   93  A    between atoms: _224  and  _225
REMARK   94  A    between atoms: _234  and  _236
REMARK   95  A    between atoms: _236  and  _237
REMARK   96  A    between atoms: _236  and  _239
REMARK   97  A    between atoms: _239  and  _240
REMARK   98  A    between atoms: _240  and  _241
REMARK   99  A    between atoms: _241  and  _242
REMARK  100  A    between atoms: _251  and  _253
REMARK  101  A    between atoms: _253  and  _254
REMARK  102  A    between atoms: _253  and  _256
REMARK  103  A    between atoms: _256  and  _257
REMARK  104  A    between atoms: _260  and  _262
REMARK  105  A    between atoms: _262  and  _263
REMARK  106  A    between atoms: _262  and  _265
REMARK  107  A    between atoms: _265  and  _266
REMARK  108  A    between atoms: _269  and  _271
REMARK  109  A    between atoms: _271  and  _272
REMARK  110  A    between atoms: _271  and  _274
REMARK  111  A    between atoms: _274  and  _275
REMARK  112  A    between atoms: _278  and  _280
REMARK  113  A    between atoms: _280  and  _281
REMARK  114  A    between atoms: _280  and  _283
REMARK  115  A    between atoms: _283  and  _284
REMARK  116  A    between atoms: _287  and  _289
REMARK  117  A    between atoms: _289  and  _290
REMARK  118  A    between atoms: _292  and  _294
REMARK  119  A    between atoms: _294  and  _295
REMARK  120  A    between atoms: _298  and  _300
REMARK  121  A    between atoms: _300  and  _301
REMARK  122  A    between atoms: _300  and  _303
REMARK  123  A    between atoms: _303  and  _304
REMARK  124  A    between atoms: _307  and  _309
REMARK  125  A    between atoms: _309  and  _310
REMARK  126  A    between atoms: _309  and  _312
REMARK  127  A    between atoms: _312  and  _313
REMARK  128  A    between atoms: _316  and  _318
REMARK  129  A    between atoms: _318  and  _319
REMARK  130  A    between atoms: _318  and  _321
REMARK  131  A    between atoms: _321  and  _322
REMARK  132  A    between atoms: _325  and  _327
REMARK  133  A    between atoms: _327  and  _328
REMARK  134  A    between atoms: _327  and  _330
REMARK  135  A    between atoms: _333  and  _335
REMARK  136  A    between atoms: _335  and  _336
REMARK  137  A    between atoms: _335  and  _338
REMARK  138  A    between atoms: _338  and  _339
REMARK  139  A    between atoms: _339  and  _340
REMARK  140  A    between atoms: _340  and  _341
REMARK  141  A    between atoms: _341  and  _342
REMARK  142  A    between atoms: _346  and  _348
REMARK  143  A    between atoms: _348  and  _349
REMARK  144  A    between atoms: _348  and  _351
REMARK  145  A    between atoms: _351  and  _352
REMARK  146  A    between atoms: _352  and  _353
REMARK  147  A    between atoms: _355  and  _357
REMARK  148  A    between atoms: _357  and  _358
REMARK  149  A    between atoms: _357  and  _360
REMARK  150  A    between atoms: _360  and  _361
REMARK  151  A    between atoms: _364  and  _366
REMARK  152  A    between atoms: _366  and  _367
REMARK  153  A    between atoms: _369  and  _371
REMARK  154  A    between atoms: _371  and  _372
REMARK  155  A    between atoms: _374  and  _376
REMARK  156  A    between atoms: _376  and  _377
REMARK  157  A    between atoms: _376  and  _379
REMARK  158  A    between atoms: _379  and  _380
REMARK  159  A    between atoms: _383  and  _385
REMARK  160  A    between atoms: _385  and  _386
REMARK  161  A    between atoms: _388  and  _390
REMARK  162  A    between atoms: _390  and  _391
REMARK  163  A    between atoms: _393  and  _395
REMARK  164  A    between atoms: _395  and  _396
REMARK  165  A    between atoms: _395  and  _398
REMARK  166  A    between atoms: _398  and  _399
REMARK  167  A    between atoms: _405  and  _407
REMARK  168  A    between atoms: _407  and  _408
REMARK  169  A    between atoms: _407  and  _410
REMARK  170  A    between atoms: _410  and  _411
REMARK  171  A    between atoms: _414  and  _416
REMARK  172  A    between atoms: _416  and  _417
REMARK  173  A    between atoms: _416  and  _419
REMARK  174  A    between atoms: _419  and  _420
REMARK  175  A    between atoms: _424  and  _425
REMARK  176  A    between atoms: _430  and  _432
REMARK  177  A    between atoms: _432  and  _433
REMARK  178  A    between atoms: _432  and  _435
REMARK  179  A    between atoms: _435  and  _436
REMARK  180  A    between atoms: _440  and  _441
REMARK  181  A    between atoms: _446  and  _448
REMARK  182  A    between atoms: _448  and  _449
REMARK  183  A    between atoms: _448  and  _451
REMARK  184  A    between atoms: _454  and  _456
REMARK  185  A    between atoms: _456  and  _457
REMARK  186  A    between atoms: _456  and  _459
REMARK  187  A    between atoms: _459  and  _460
REMARK  188  A    between atoms: _465  and  _467
REMARK  189  A    between atoms: _467  and  _468
REMARK  190  A    between atoms: _467  and  _470
REMARK  191  A    between atoms: _470  and  _471
REMARK  192  A    between atoms: _474  and  _476
REMARK  193  A    between atoms: _476  and  _477
REMARK  194  A    between atoms: _476  and  _479
REMARK  195  A    between atoms: _479  and  _480
REMARK  196  A    between atoms: _483  and  _485
REMARK  197  A    between atoms: _485  and  _486
REMARK  198  A    between atoms: _488  and  _490
REMARK  199  A    between atoms: _490  and  _491
REMARK  200  A    between atoms: _490  and  _493
REMARK  201  A    between atoms: _493  and  _494
REMARK  202  A    between atoms: _494  and  _495
REMARK  203  A    between atoms: _495  and  _496
REMARK  204  A    between atoms: _505  and  _507
REMARK  205  A    between atoms: _507  and  _508
REMARK  206  A    between atoms: _507  and  _510
REMARK  207  A    between atoms: _510  and  _511
REMARK                            x       y       z     vdW  Elec       q    Type
REMARK                         _______ _______ _______ _____ _____    ______ ____
ROOT
ATOM      1  O   HOH     1      17.761  23.609   8.701  0.00  0.00    +0.000 OA
ENDROOT
TORSDOF 0
REMARK  Name = ../refined-set-2016/3gi4/3gi4_pocket.pdb
REMARK  207 active torsions:
REMARK  status: ('A' for Active; 'I' for Inactive)
REMARK    1  A    between atoms: _1  and  _3
REMARK    2  A    between atoms: _3  and  _4
REMARK    3  A    between atoms: _3  and  _6
REMARK    4  A    between atoms: _6  and  _7
REMARK    5  A    between atoms: _7  and  _8
REMARK    6  A    between atoms: _8  and  _9
REMARK    7  A    between atoms: _18  and  _20
REMARK    8  A    between atoms: _20  and  _21
REMARK    9  A    between atoms: _20  and  _23
REMARK   10  A    between atoms: _23  and  _24
REMARK   11  A    between atoms: _27  and  _29
REMARK   12  A    between atoms: _29  and  _30
REMARK   13  A    between atoms: _29  and  _32
REMARK   14  A    between atoms: _32  and  _33
REMARK   15  A    between atoms: _36  and  _38
REMARK   16  A    between atoms: _38  and  _39
REMARK   17  A    between atoms: _38  and  _41
REMARK   18  A    between atoms: _41  and  _42
REMARK   19  A    between atoms: _45  and  _47
REMARK   20  A    between atoms: _47  and  _48
REMARK   21  A    between atoms: _47  and  _50
REMARK   22  A    between atoms: _50  and  _51
REMARK   23  A    between atoms: _54  and  _56
REMARK   24  A    between atoms: _56  and  _57
REMARK   25  A    between atoms: _59  and  _61
REMARK   26  A    between atoms: _61  and  _62
REMARK   27  A    between atoms: _65  and  _67
REMARK   28  A    between atoms: _67  and  _68
REMARK   29  A    between atoms: _67  and  _70
REMARK   30  A    between atoms: _70  and  _71
REMARK   31  A    between atoms: _74  and  _76
REMARK   32  A    between atoms: _76  and  _77
REMARK   33  A    between atoms: _76  and  _79
REMARK   34  A    between atoms: _79  and  _80
REMARK   35  A    between atoms: _83  and  _85
REMARK   36  A    between atoms: _85  and  _86
REMARK   37  A    between atoms: _85  and  _88
REMARK   38  A    between atoms: _88  and  _89
REMARK   39  A    between atoms: _92  and  _94
REMARK   40  A    between atoms: _94  and  _95
REMARK   41  A    between atoms: _94  and  _97
REMARK   42  A    between atoms: _100  and  _102
REMARK   43  A    between atoms: _102  and  _103
REMARK   44  A    between atoms: _102  and  _105
REMARK   45  A    between atoms: _105  and  _106
REMARK   46  A    between atoms: _109  and  _111
REMARK   47  A    between atoms: _111  and  _112
REMARK   48  A    between atoms: _114  and  _116
REMARK   49  A    between atoms: _116  and  _117
REMARK   50  A    between atoms: _119  and  _121
REMARK   51  A    between atoms: _121  and  _122
REMARK   52  A    between atoms: _121  and  _124
REMARK   53  A    between atoms: _124  and  _125
REMARK   54  A    between atoms: _128  and  _130
REMARK   55  A    between atoms: _130  and  _131
REMARK   56  A    between atoms: _133  and  _135
REMARK   57  A    between atoms: _135  and  _136
REMARK   58  A    between atoms: _138  and  _140
REMARK   59  A    between atoms: _140  and  _141
REMARK   60  A    between atoms: _140  and  _143
REMARK   61  A    between atoms: _143  and  _144
REMARK   62  A    between atoms: _150  and  _152
REMARK   63  A    between atoms: _152  and  _153
REMARK   64  A    between atoms: _152  and  _155
REMARK   65  A    between atoms: _155  and  _156
REMARK   66  A    between atoms: _159  and  _161
REMARK   67  A    between atoms: _161  and  _162
REMARK   68  A    between atoms: _161  and  _164
REMARK   69  A    between atoms: _164  and  _165
REMARK   70  A    between atoms: _169  and  _170
REMARK   71  A    between atoms: _175  and  _177
REMARK   72  A    between atoms: _177  and  _178
REMARK   73  A    between atoms: _177  and  _180
REMARK   74  A    between atoms: _183  and  _185
REMARK   75  A    between atoms: _185  and  _186
REMARK   76  A    between atoms: _185  and  _188
REMARK   77  A    between atoms: _188  and  _189
REMARK   78  A    between atoms: _194  and  _196
REMARK   79  A    between atoms: _196  and  _197
REMARK   80  A    between atoms: _196  and  _199
REMARK   81  A    between atoms: _199  and  _200
REMARK   82  A    between atoms: _203  and  _205
REMARK   83  A    between atoms: _205  and  _206
REMARK   84  A    between atoms: _205  and  _208
REMARK   85  A    between atoms: _208  and  _209
REMARK   86  A    between atoms: _212  and  _214
REMARK   87  A    between atoms: _214  and  _215
REMARK   88  A    between atoms: _217  and  _219
REMARK   89  A    between atoms: _219  and  _220
REMARK   90  A    between atoms: _219  and  _222
REMARK   91  A    between atoms: _222  and  _223
REMARK   92  A    between atoms: _223  and  _224
REMARK   93  A    between atoms: _224  and  _225
REMARK   94  A    between atoms: _234  and  _236
REMARK   95  A    between atoms: _236  and  _237
REMARK   96  A    between atoms: _236  and  _239
REMARK   97  A    between atoms: _239  and  _240
REMARK   98  A    between atoms: _240  and  _241
REMARK   99  A    between atoms: _241  and  _242
REMARK  100  A    between atoms: _251  and  _253
REMARK  101  A    between atoms: _253  and  _254
REMARK  102  A    between atoms: _253  and  _256
REMARK  103  A    between atoms: _256  and  _257
REMARK  104  A    between atoms: _260  and  _262
REMARK  105  A    between atoms: _262  and  _263
REMARK  106  A    between atoms: _262  and  _265
REMARK  107  A    between atoms: _265  and  _266
REMARK  108  A    between atoms: _269  and  _271
REMARK  109  A    between atoms: _271  and  _272
REMARK  110  A    between atoms: _271  and  _274
REMARK  111  A    between atoms: _274  and  _275
REMARK  112  A    between atoms: _278  and  _280
REMARK  113  A    between atoms: _280  and  _281
REMARK  114  A    between atoms: _280  and  _283
REMARK  115  A    between atoms: _283  and  _284
REMARK  116  A    between atoms: _287  and  _289
REMARK  117  A    between atoms: _289  and  _290
REMARK  118  A    between atoms: _292  and  _294
REMARK  119  A    between atoms: _294  and  _295
REMARK  120  A    between atoms: _298  and  _300
REMARK  121  A    between atoms: _300  and  _301
REMARK  122  A    between atoms: _300  and  _303
REMARK  123  A    between atoms: _303  and  _304
REMARK  124  A    between atoms: _307  and  _309
REMARK  125  A    between atoms: _309  and  _310
REMARK  126  A    between atoms: _309  and  _312
REMARK  127  A    between atoms: _312  and  _313
REMARK  128  A    between atoms: _316  and  _318
REMARK  129  A    between atoms: _318  and  _319
REMARK  130  A    between atoms: _318  and  _321
REMARK  131  A    between atoms: _321  and  _322
REMARK  132  A    between atoms: _325  and  _327
REMARK  133  A    between atoms: _327  and  _328
REMARK  134  A    between atoms: _327  and  _330
REMARK  135  A    between atoms: _333  and  _335
REMARK  136  A    between atoms: _335  and  _336
REMARK  137  A    between atoms: _335  and  _338
REMARK  138  A    between atoms: _338  and  _339
REMARK  139  A    between atoms: _339  and  _340
REMARK  140  A    between atoms: _340  and  _341
REMARK  141  A    between atoms: _341  and  _342
REMARK  142  A    between atoms: _346  and  _348
REMARK  143  A    between atoms: _348  and  _349
REMARK  144  A    between atoms: _348  and  _351
REMARK  145  A    between atoms: _351  and  _352
REMARK  146  A    between atoms: _352  and  _353
REMARK  147  A    between atoms: _355  and  _357
REMARK  148  A    between atoms: _357  and  _358
REMARK  149  A    between atoms: _357  and  _360
REMARK  150  A    between atoms: _360  and  _361
REMARK  151  A    between atoms: _364  and  _366
REMARK  152  A    between atoms: _366  and  _367
REMARK  153  A    between atoms: _369  and  _371
REMARK  154  A    between atoms: _371  and  _372
REMARK  155  A    between atoms: _374  and  _376
REMARK  156  A    between atoms: _376  and  _377
REMARK  157  A    between atoms: _376  and  _379
REMARK  158  A    between atoms: _379  and  _380
REMARK  159  A    between atoms: _383  and  _385
REMARK  160  A    between atoms: _385  and  _386
REMARK  161  A    between atoms: _388  and  _390
REMARK  162  A    between atoms: _390  and  _391
REMARK  163  A    between atoms: _393  and  _395
REMARK  164  A    between atoms: _395  and  _396
REMARK  165  A    between atoms: _395  and  _398
REMARK  166  A    between atoms: _398  and  _399
REMARK  167  A    between atoms: _405  and  _407
REMARK  168  A    between atoms: _407  and  _408
REMARK  169  A    between atoms: _407  and  _410
REMARK  170  A    between atoms: _410  and  _411
REMARK  171  A    between atoms: _414  and  _416
REMARK  172  A    between atoms: _416  and  _417
REMARK  173  A    between atoms: _416  and  _419
REMARK  174  A    between atoms: _419  and  _420
REMARK  175  A    between atoms: _424  and  _425
REMARK  176  A    between atoms: _430  and  _432
REMARK  177  A    between atoms: _432  and  _433
REMARK  178  A    between atoms: _432  and  _435
REMARK  179  A    between atoms: _435  and  _436
REMARK  180  A    between atoms: _440  and  _441
REMARK  181  A    between atoms: _446  and  _448
REMARK  182  A    between atoms: _448  and  _449
REMARK  183  A    between atoms: _448  and  _451
REMARK  184  A    between atoms: _454  and  _456
REMARK  185  A    between atoms: _456  and  _457
REMARK  186  A    between atoms: _456  and  _459
REMARK  187  A    between atoms: _459  and  _460
REMARK  188  A    between atoms: _465  and  _467
REMARK  189  A    between atoms: _467  and  _468
REMARK  190  A    between atoms: _467  and  _470
REMARK  191  A    between atoms: _470  and  _471
REMARK  192  A    between atoms: _474  and  _476
REMARK  193  A    between atoms: _476  and  _477
REMARK  194  A    between atoms: _476  and  _479
REMARK  195  A    between atoms: _479  and  _480
REMARK  196  A    between atoms: _483  and  _485
REMARK  197  A    between atoms: _485  and  _486
REMARK  198  A    between atoms: _488  and  _490
REMARK  199  A    between atoms: _490  and  _491
REMARK  200  A    between atoms: _490  and  _493
REMARK  201  A    between atoms: _493  and  _494
REMARK  202  A    between atoms: _494  and  _495
REMARK  203  A    between atoms: _495  and  _496
REMARK  204  A    between atoms: _505  and  _507
REMARK  205  A    between atoms: _507  and  _508
REMARK  206  A    between atoms: _507  and  _510
REMARK  207  A    between atoms: _510  and  _511
REMARK                            x       y       z     vdW  Elec       q    Type
REMARK                         _______ _______ _______ _____ _____    ______ ____
ROOT
ATOM      1  O   HOH     1      20.605  34.224  21.828  0.00  0.00    +0.000 OA
ENDROOT
TORSDOF 0
REMARK  Name = ../refined-set-2016/3gi4/3gi4_pocket.pdb
REMARK  207 active torsions:
REMARK  status: ('A' for Active; 'I' for Inactive)
REMARK    1  A    between atoms: _1  and  _3
REMARK    2  A    between atoms: _3  and  _4
REMARK    3  A    between atoms: _3  and  _6
REMARK    4  A    between atoms: _6  and  _7
REMARK    5  A    between atoms: _7  and  _8
REMARK    6  A    between atoms: _8  and  _9
REMARK    7  A    between atoms: _18  and  _20
REMARK    8  A    between atoms: _20  and  _21
REMARK    9  A    between atoms: _20  and  _23
REMARK   10  A    between atoms: _23  and  _24
REMARK   11  A    between atoms: _27  and  _29
REMARK   12  A    between atoms: _29  and  _30
REMARK   13  A    between atoms: _29  and  _32
REMARK   14  A    between atoms: _32  and  _33
REMARK   15  A    between atoms: _36  and  _38
REMARK   16  A    between atoms: _38  and  _39
REMARK   17  A    between atoms: _38  and  _41
REMARK   18  A    between atoms: _41  and  _42
REMARK   19  A    between atoms: _45  and  _47
REMARK   20  A    between atoms: _47  and  _48
REMARK   21  A    between atoms: _47  and  _50
REMARK   22  A    between atoms: _50  and  _51
REMARK   23  A    between atoms: _54  and  _56
REMARK   24  A    between atoms: _56  and  _57
REMARK   25  A    between atoms: _59  and  _61
REMARK   26  A    between atoms: _61  and  _62
REMARK   27  A    between atoms: _65  and  _67
REMARK   28  A    between atoms: _67  and  _68
REMARK   29  A    between atoms: _67  and  _70
REMARK   30  A    between atoms: _70  and  _71
REMARK   31  A    between atoms: _74  and  _76
REMARK   32  A    between atoms: _76  and  _77
REMARK   33  A    between atoms: _76  and  _79
REMARK   34  A    between atoms: _79  and  _80
REMARK   35  A    between atoms: _83  and  _85
REMARK   36  A    between atoms: _85  and  _86
REMARK   37  A    between atoms: _85  and  _88
REMARK   38  A    between atoms: _88  and  _89
REMARK   39  A    between atoms: _92  and  _94
REMARK   40  A    between atoms: _94  and  _95
REMARK   41  A    between atoms: _94  and  _97
REMARK   42  A    between atoms: _100  and  _102
REMARK   43  A    between atoms: _102  and  _103
REMARK   44  A    between atoms: _102  and  _105
REMARK   45  A    between atoms: _105  and  _106
REMARK   46  A    between atoms: _109  and  _111
REMARK   47  A    between atoms: _111  and  _112
REMARK   48  A    between atoms: _114  and  _116
REMARK   49  A    between atoms: _116  and  _117
REMARK   50  A    between atoms: _119  and  _121
REMARK   51  A    between atoms: _121  and  _122
REMARK   52  A    between atoms: _121  and  _124
REMARK   53  A    between atoms: _124  and  _125
REMARK   54  A    between atoms: _128  and  _130
REMARK   55  A    between atoms: _130  and  _131
REMARK   56  A    between atoms: _133  and  _135
REMARK   57  A    between atoms: _135  and  _136
REMARK   58  A    between atoms: _138  and  _140
REMARK   59  A    between atoms: _140  and  _141
REMARK   60  A    between atoms: _140  and  _143
REMARK   61  A    between atoms: _143  and  _144
REMARK   62  A    between atoms: _150  and  _152
REMARK   63  A    between atoms: _152  and  _153
REMARK   64  A    between atoms: _152  and  _155
REMARK   65  A    between atoms: _155  and  _156
REMARK   66  A    between atoms: _159  and  _161
REMARK   67  A    between atoms: _161  and  _162
REMARK   68  A    between atoms: _161  and  _164
REMARK   69  A    between atoms: _164  and  _165
REMARK   70  A    between atoms: _169  and  _170
REMARK   71  A    between atoms: _175  and  _177
REMARK   72  A    between atoms: _177  and  _178
REMARK   73  A    between atoms: _177  and  _180
REMARK   74  A    between atoms: _183  and  _185
REMARK   75  A    between atoms: _185  and  _186
REMARK   76  A    between atoms: _185  and  _188
REMARK   77  A    between atoms: _188  and  _189
REMARK   78  A    between atoms: _194  and  _196
REMARK   79  A    between atoms: _196  and  _197
REMARK   80  A    between atoms: _196  and  _199
REMARK   81  A    between atoms: _199  and  _200
REMARK   82  A    between atoms: _203  and  _205
REMARK   83  A    between atoms: _205  and  _206
REMARK   84  A    between atoms: _205  and  _208
REMARK   85  A    between atoms: _208  and  _209
REMARK   86  A    between atoms: _212  and  _214
REMARK   87  A    between atoms: _214  and  _215
REMARK   88  A    between atoms: _217  and  _219
REMARK   89  A    between atoms: _219  and  _220
REMARK   90  A    between atoms: _219  and  _222
REMARK   91  A    between atoms: _222  and  _223
REMARK   92  A    between atoms: _223  and  _224
REMARK   93  A    between atoms: _224  and  _225
REMARK   94  A    between atoms: _234  and  _236
REMARK   95  A    between atoms: _236  and  _237
REMARK   96  A    between atoms: _236  and  _239
REMARK   97  A    between atoms: _239  and  _240
REMARK   98  A    between atoms: _240  and  _241
REMARK   99  A    between atoms: _241  and  _242
REMARK  100  A    between atoms: _251  and  _253
REMARK  101  A    between atoms: _253  and  _254
REMARK  102  A    between atoms: _253  and  _256
REMARK  103  A    between atoms: _256  and  _257
REMARK  104  A    between atoms: _260  and  _262
REMARK  105  A    between atoms: _262  and  _263
REMARK  106  A    between atoms: _262  and  _265
REMARK  107  A    between atoms: _265  and  _266
REMARK  108  A    between atoms: _269  and  _271
REMARK  109  A    between atoms: _271  and  _272
REMARK  110  A    between atoms: _271  and  _274
REMARK  111  A    between atoms: _274  and  _275
REMARK  112  A    between atoms: _278  and  _280
REMARK  113  A    between atoms: _280  and  _281
REMARK  114  A    between atoms: _280  and  _283
REMARK  115  A    between atoms: _283  and  _284
REMARK  116  A    between atoms: _287  and  _289
REMARK  117  A    between atoms: _289  and  _290
REMARK  118  A    between atoms: _292  and  _294
REMARK  119  A    between atoms: _294  and  _295
REMARK  120  A    between atoms: _298  and  _300
REMARK  121  A    between atoms: _300  and  _301
REMARK  122  A    between atoms: _300  and  _303
REMARK  123  A    between atoms: _303  and  _304
REMARK  124  A    between atoms: _307  and  _309
REMARK  125  A    between atoms: _309  and  _310
REMARK  126  A    between atoms: _309  and  _312
REMARK  127  A    between atoms: _312  and  _313
REMARK  128  A    between atoms: _316  and  _318
REMARK  129  A    between atoms: _318  and  _319
REMARK  130  A    between atoms: _318  and  _321
REMARK  131  A    between atoms: _321  and  _322
REMARK  132  A    between atoms: _325  and  _327
REMARK  133  A    between atoms: _327  and  _328
REMARK  134  A    between atoms: _327  and  _330
REMARK  135  A    between atoms: _333  and  _335
REMARK  136  A    between atoms: _335  and  _336
REMARK  137  A    between atoms: _335  and  _338
REMARK  138  A    between atoms: _338  and  _339
REMARK  139  A    between atoms: _339  and  _340
REMARK  140  A    between atoms: _340  and  _341
REMARK  141  A    between atoms: _341  and  _342
REMARK  142  A    between atoms: _346  and  _348
REMARK  143  A    between atoms: _348  and  _349
REMARK  144  A    between atoms: _348  and  _351
REMARK  145  A    between atoms: _351  and  _352
REMARK  146  A    between atoms: _352  and  _353
REMARK  147  A    between atoms: _355  and  _357
REMARK  148  A    between atoms: _357  and  _358
REMARK  149  A    between atoms: _357  and  _360
REMARK  150  A    between atoms: _360  and  _361
REMARK  151  A    between atoms: _364  and  _366
REMARK  152  A    between atoms: _366  and  _367
REMARK  153  A    between atoms: _369  and  _371
REMARK  154  A    between atoms: _371  and  _372
REMARK  155  A    between atoms: _374  and  _376
REMARK  156  A    between atoms: _376  and  _377
REMARK  157  A    between atoms: _376  and  _379
REMARK  158  A    between atoms: _379  and  _380
REMARK  159  A    between atoms: _383  and  _385
REMARK  160  A    between atoms: _385  and  _386
REMARK  161  A    between atoms: _388  and  _390
REMARK  162  A    between atoms: _390  and  _391
REMARK  163  A    between atoms: _393  and  _395
REMARK  164  A    between atoms: _395  and  _396
REMARK  165  A    between atoms: _395  and  _398
REMARK  166  A    between atoms: _398  and  _399
REMARK  167  A    between atoms: _405  and  _407
REMARK  168  A    between atoms: _407  and  _408
REMARK  169  A    between atoms: _407  and  _410
REMARK  170  A    between atoms: _410  and  _411
REMARK  171  A    between atoms: _414  and  _416
REMARK  172  A    between atoms: _416  and  _417
REMARK  173  A    between atoms: _416  and  _419
REMARK  174  A    between atoms: _419  and  _420
REMARK  175  A    between atoms: _424  and  _425
REMARK  176  A    between atoms: _430  and  _432
REMARK  177  A    between atoms: _432  and  _433
REMARK  178  A    between atoms: _432  and  _435
REMARK  179  A    between atoms: _435  and  _436
REMARK  180  A    between atoms: _440  and  _441
REMARK  181  A    between atoms: _446  and  _448
REMARK  182  A    between atoms: _448  and  _449
REMARK  183  A    between atoms: _448  and  _451
REMARK  184  A    between atoms: _454  and  _456
REMARK  185  A    between atoms: _456  and  _457
REMARK  186  A    between atoms: _456  and  _459
REMARK  187  A    between atoms: _459  and  _460
REMARK  188  A    between atoms: _465  and  _467
REMARK  189  A    between atoms: _467  and  _468
REMARK  190  A    between atoms: _467  and  _470
REMARK  191  A    between atoms: _470  and  _471
REMARK  192  A    between atoms: _474  and  _476
REMARK  193  A    between atoms: _476  and  _477
REMARK  194  A    between atoms: _476  and  _479
REMARK  195  A    between atoms: _479  and  _480
REMARK  196  A    between atoms: _483  and  _485
REMARK  197  A    between atoms: _485  and  _486
REMARK  198  A    between atoms: _488  and  _490
REMARK  199  A    between atoms: _490  and  _491
REMARK  200  A    between atoms: _490  and  _493
REMARK  201  A    between atoms: _493  and  _494
REMARK  202  A    between atoms: _494  and  _495
REMARK  203  A    between atoms: _495  and  _496
REMARK  204  A    between atoms: _505  and  _507
REMARK  205  A    between atoms: _507  and  _508
REMARK  206  A    between atoms: _507  and  _510
REMARK  207  A    between atoms: _510  and  _511
REMARK                            x       y       z     vdW  Elec       q    Type
REMARK                         _______ _______ _______ _____ _____    ______ ____
ROOT
ATOM      1  O   HOH     1      18.485  34.517  19.456  0.00  0.00    +0.000 OA
ENDROOT
TORSDOF 0
REMARK  Name = ../refined-set-2016/3gi4/3gi4_pocket.pdb
REMARK  207 active torsions:
REMARK  status: ('A' for Active; 'I' for Inactive)
REMARK    1  A    between atoms: _1  and  _3
REMARK    2  A    between atoms: _3  and  _4
REMARK    3  A    between atoms: _3  and  _6
REMARK    4  A    between atoms: _6  and  _7
REMARK    5  A    between atoms: _7  and  _8
REMARK    6  A    between atoms: _8  and  _9
REMARK    7  A    between atoms: _18  and  _20
REMARK    8  A    between atoms: _20  and  _21
REMARK    9  A    between atoms: _20  and  _23
REMARK   10  A    between atoms: _23  and  _24
REMARK   11  A    between atoms: _27  and  _29
REMARK   12  A    between atoms: _29  and  _30
REMARK   13  A    between atoms: _29  and  _32
REMARK   14  A    between atoms: _32  and  _33
REMARK   15  A    between atoms: _36  and  _38
REMARK   16  A    between atoms: _38  and  _39
REMARK   17  A    between atoms: _38  and  _41
REMARK   18  A    between atoms: _41  and  _42
REMARK   19  A    between atoms: _45  and  _47
REMARK   20  A    between atoms: _47  and  _48
REMARK   21  A    between atoms: _47  and  _50
REMARK   22  A    between atoms: _50  and  _51
REMARK   23  A    between atoms: _54  and  _56
REMARK   24  A    between atoms: _56  and  _57
REMARK   25  A    between atoms: _59  and  _61
REMARK   26  A    between atoms: _61  and  _62
REMARK   27  A    between atoms: _65  and  _67
REMARK   28  A    between atoms: _67  and  _68
REMARK   29  A    between atoms: _67  and  _70
REMARK   30  A    between atoms: _70  and  _71
REMARK   31  A    between atoms: _74  and  _76
REMARK   32  A    between atoms: _76  and  _77
REMARK   33  A    between atoms: _76  and  _79
REMARK   34  A    between atoms: _79  and  _80
REMARK   35  A    between atoms: _83  and  _85
REMARK   36  A    between atoms: _85  and  _86
REMARK   37  A    between atoms: _85  and  _88
REMARK   38  A    between atoms: _88  and  _89
REMARK   39  A    between atoms: _92  and  _94
REMARK   40  A    between atoms: _94  and  _95
REMARK   41  A    between atoms: _94  and  _97
REMARK   42  A    between atoms: _100  and  _102
REMARK   43  A    between atoms: _102  and  _103
REMARK   44  A    between atoms: _102  and  _105
REMARK   45  A    between atoms: _105  and  _106
REMARK   46  A    between atoms: _109  and  _111
REMARK   47  A    between atoms: _111  and  _112
REMARK   48  A    between atoms: _114  and  _116
REMARK   49  A    between atoms: _116  and  _117
REMARK   50  A    between atoms: _119  and  _121
REMARK   51  A    between atoms: _121  and  _122
REMARK   52  A    between atoms: _121  and  _124
REMARK   53  A    between atoms: _124  and  _125
REMARK   54  A    between atoms: _128  and  _130
REMARK   55  A    between atoms: _130  and  _131
REMARK   56  A    between atoms: _133  and  _135
REMARK   57  A    between atoms: _135  and  _136
REMARK   58  A    between atoms: _138  and  _140
REMARK   59  A    between atoms: _140  and  _141
REMARK   60  A    between atoms: _140  and  _143
REMARK   61  A    between atoms: _143  and  _144
REMARK   62  A    between atoms: _150  and  _152
REMARK   63  A    between atoms: _152  and  _153
REMARK   64  A    between atoms: _152  and  _155
REMARK   65  A    between atoms: _155  and  _156
REMARK   66  A    between atoms: _159  and  _161
REMARK   67  A    between atoms: _161  and  _162
REMARK   68  A    between atoms: _161  and  _164
REMARK   69  A    between atoms: _164  and  _165
REMARK   70  A    between atoms: _169  and  _170
REMARK   71  A    between atoms: _175  and  _177
REMARK   72  A    between atoms: _177  and  _178
REMARK   73  A    between atoms: _177  and  _180
REMARK   74  A    between atoms: _183  and  _185
REMARK   75  A    between atoms: _185  and  _186
REMARK   76  A    between atoms: _185  and  _188
REMARK   77  A    between atoms: _188  and  _189
REMARK   78  A    between atoms: _194  and  _196
REMARK   79  A    between atoms: _196  and  _197
REMARK   80  A    between atoms: _196  and  _199
REMARK   81  A    between atoms: _199  and  _200
REMARK   82  A    between atoms: _203  and  _205
REMARK   83  A    between atoms: _205  and  _206
REMARK   84  A    between atoms: _205  and  _208
REMARK   85  A    between atoms: _208  and  _209
REMARK   86  A    between atoms: _212  and  _214
REMARK   87  A    between atoms: _214  and  _215
REMARK   88  A    between atoms: _217  and  _219
REMARK   89  A    between atoms: _219  and  _220
REMARK   90  A    between atoms: _219  and  _222
REMARK   91  A    between atoms: _222  and  _223
REMARK   92  A    between atoms: _223  and  _224
REMARK   93  A    between atoms: _224  and  _225
REMARK   94  A    between atoms: _234  and  _236
REMARK   95  A    between atoms: _236  and  _237
REMARK   96  A    between atoms: _236  and  _239
REMARK   97  A    between atoms: _239  and  _240
REMARK   98  A    between atoms: _240  and  _241
REMARK   99  A    between atoms: _241  and  _242
REMARK  100  A    between atoms: _251  and  _253
REMARK  101  A    between atoms: _253  and  _254
REMARK  102  A    between atoms: _253  and  _256
REMARK  103  A    between atoms: _256  and  _257
REMARK  104  A    between atoms: _260  and  _262
REMARK  105  A    between atoms: _262  and  _263
REMARK  106  A    between atoms: _262  and  _265
REMARK  107  A    between atoms: _265  and  _266
REMARK  108  A    between atoms: _269  and  _271
REMARK  109  A    between atoms: _271  and  _272
REMARK  110  A    between atoms: _271  and  _274
REMARK  111  A    between atoms: _274  and  _275
REMARK  112  A    between atoms: _278  and  _280
REMARK  113  A    between atoms: _280  and  _281
REMARK  114  A    between atoms: _280  and  _283
REMARK  115  A    between atoms: _283  and  _284
REMARK  116  A    between atoms: _287  and  _289
REMARK  117  A    between atoms: _289  and  _290
REMARK  118  A    between atoms: _292  and  _294
REMARK  119  A    between atoms: _294  and  _295
REMARK  120  A    between atoms: _298  and  _300
REMARK  121  A    between atoms: _300  and  _301
REMARK  122  A    between atoms: _300  and  _303
REMARK  123  A    between atoms: _303  and  _304
REMARK  124  A    between atoms: _307  and  _309
REMARK  125  A    between atoms: _309  and  _310
REMARK  126  A    between atoms: _309  and  _312
REMARK  127  A    between atoms: _312  and  _313
REMARK  128  A    between atoms: _316  and  _318
REMARK  129  A    between atoms: _318  and  _319
REMARK  130  A    between atoms: _318  and  _321
REMARK  131  A    between atoms: _321  and  _322
REMARK  132  A    between atoms: _325  and  _327
REMARK  133  A    between atoms: _327  and  _328
REMARK  134  A    between atoms: _327  and  _330
REMARK  135  A    between atoms: _333  and  _335
REMARK  136  A    between atoms: _335  and  _336
REMARK  137  A    between atoms: _335  and  _338
REMARK  138  A    between atoms: _338  and  _339
REMARK  139  A    between atoms: _339  and  _340
REMARK  140  A    between atoms: _340  and  _341
REMARK  141  A    between atoms: _341  and  _342
REMARK  142  A    between atoms: _346  and  _348
REMARK  143  A    between atoms: _348  and  _349
REMARK  144  A    between atoms: _348  and  _351
REMARK  145  A    between atoms: _351  and  _352
REMARK  146  A    between atoms: _352  and  _353
REMARK  147  A    between atoms: _355  and  _357
REMARK  148  A    between atoms: _357  and  _358
REMARK  149  A    between atoms: _357  and  _360
REMARK  150  A    between atoms: _360  and  _361
REMARK  151  A    between atoms: _364  and  _366
REMARK  152  A    between atoms: _366  and  _367
REMARK  153  A    between atoms: _369  and  _371
REMARK  154  A    between atoms: _371  and  _372
REMARK  155  A    between atoms: _374  and  _376
REMARK  156  A    between atoms: _376  and  _377
REMARK  157  A    between atoms: _376  and  _379
REMARK  158  A    between atoms: _379  and  _380
REMARK  159  A    between atoms: _383  and  _385
REMARK  160  A    between atoms: _385  and  _386
REMARK  161  A    between atoms: _388  and  _390
REMARK  162  A    between atoms: _390  and  _391
REMARK  163  A    between atoms: _393  and  _395
REMARK  164  A    between atoms: _395  and  _396
REMARK  165  A    between atoms: _395  and  _398
REMARK  166  A    between atoms: _398  and  _399
REMARK  167  A    between atoms: _405  and  _407
REMARK  168  A    between atoms: _407  and  _408
REMARK  169  A    between atoms: _407  and  _410
REMARK  170  A    between atoms: _410  and  _411
REMARK  171  A    between atoms: _414  and  _416
REMARK  172  A    between atoms: _416  and  _417
REMARK  173  A    between atoms: _416  and  _419
REMARK  174  A    between atoms: _419  and  _420
REMARK  175  A    between atoms: _424  and  _425
REMARK  176  A    between atoms: _430  and  _432
REMARK  177  A    between atoms: _432  and  _433
REMARK  178  A    between atoms: _432  and  _435
REMARK  179  A    between atoms: _435  and  _436
REMARK  180  A    between atoms: _440  and  _441
REMARK  181  A    between atoms: _446  and  _448
REMARK  182  A    between atoms: _448  and  _449
REMARK  183  A    between atoms: _448  and  _451
REMARK  184  A    between atoms: _454  and  _456
REMARK  185  A    between atoms: _456  and  _457
REMARK  186  A    between atoms: _456  and  _459
REMARK  187  A    between atoms: _459  and  _460
REMARK  188  A    between atoms: _465  and  _467
REMARK  189  A    between atoms: _467  and  _468
REMARK  190  A    between atoms: _467  and  _470
REMARK  191  A    between atoms: _470  and  _471
REMARK  192  A    between atoms: _474  and  _476
REMARK  193  A    between atoms: _476  and  _477
REMARK  194  A    between atoms: _476  and  _479
REMARK  195  A    between atoms: _479  and  _480
REMARK  196  A    between atoms: _483  and  _485
REMARK  197  A    between atoms: _485  and  _486
REMARK  198  A    between atoms: _488  and  _490
REMARK  199  A    between atoms: _490  and  _491
REMARK  200  A    between atoms: _490  and  _493
REMARK  201  A    between atoms: _493  and  _494
REMARK  202  A    between atoms: _494  and  _495
REMARK  203  A    between atoms: _495  and  _496
REMARK  204  A    between atoms: _505  and  _507
REMARK  205  A    between atoms: _507  and  _508
REMARK  206  A    between atoms: _507  and  _510
REMARK  207  A    between atoms: _510  and  _511
REMARK                            x       y       z     vdW  Elec       q    Type
REMARK                         _______ _______ _______ _____ _____    ______ ____
ROOT
ATOM      1  O   HOH     1      10.112  36.402  23.553  0.00  0.00    +0.000 OA
ENDROOT
TORSDOF 0
REMARK  Name = ../refined-set-2016/3gi4/3gi4_pocket.pdb
REMARK  207 active torsions:
REMARK  status: ('A' for Active; 'I' for Inactive)
REMARK    1  A    between atoms: _1  and  _3
REMARK    2  A    between atoms: _3  and  _4
REMARK    3  A    between atoms: _3  and  _6
REMARK    4  A    between atoms: _6  and  _7
REMARK    5  A    between atoms: _7  and  _8
REMARK    6  A    between atoms: _8  and  _9
REMARK    7  A    between atoms: _18  and  _20
REMARK    8  A    between atoms: _20  and  _21
REMARK    9  A    between atoms: _20  and  _23
REMARK   10  A    between atoms: _23  and  _24
REMARK   11  A    between atoms: _27  and  _29
REMARK   12  A    between atoms: _29  and  _30
REMARK   13  A    between atoms: _29  and  _32
REMARK   14  A    between atoms: _32  and  _33
REMARK   15  A    between atoms: _36  and  _38
REMARK   16  A    between atoms: _38  and  _39
REMARK   17  A    between atoms: _38  and  _41
REMARK   18  A    between atoms: _41  and  _42
REMARK   19  A    between atoms: _45  and  _47
REMARK   20  A    between atoms: _47  and  _48
REMARK   21  A    between atoms: _47  and  _50
REMARK   22  A    between atoms: _50  and  _51
REMARK   23  A    between atoms: _54  and  _56
REMARK   24  A    between atoms: _56  and  _57
REMARK   25  A    between atoms: _59  and  _61
REMARK   26  A    between atoms: _61  and  _62
REMARK   27  A    between atoms: _65  and  _67
REMARK   28  A    between atoms: _67  and  _68
REMARK   29  A    between atoms: _67  and  _70
REMARK   30  A    between atoms: _70  and  _71
REMARK   31  A    between atoms: _74  and  _76
REMARK   32  A    between atoms: _76  and  _77
REMARK   33  A    between atoms: _76  and  _79
REMARK   34  A    between atoms: _79  and  _80
REMARK   35  A    between atoms: _83  and  _85
REMARK   36  A    between atoms: _85  and  _86
REMARK   37  A    between atoms: _85  and  _88
REMARK   38  A    between atoms: _88  and  _89
REMARK   39  A    between atoms: _92  and  _94
REMARK   40  A    between atoms: _94  and  _95
REMARK   41  A    between atoms: _94  and  _97
REMARK   42  A    between atoms: _100  and  _102
REMARK   43  A    between atoms: _102  and  _103
REMARK   44  A    between atoms: _102  and  _105
REMARK   45  A    between atoms: _105  and  _106
REMARK   46  A    between atoms: _109  and  _111
REMARK   47  A    between atoms: _111  and  _112
REMARK   48  A    between atoms: _114  and  _116
REMARK   49  A    between atoms: _116  and  _117
REMARK   50  A    between atoms: _119  and  _121
REMARK   51  A    between atoms: _121  and  _122
REMARK   52  A    between atoms: _121  and  _124
REMARK   53  A    between atoms: _124  and  _125
REMARK   54  A    between atoms: _128  and  _130
REMARK   55  A    between atoms: _130  and  _131
REMARK   56  A    between atoms: _133  and  _135
REMARK   57  A    between atoms: _135  and  _136
REMARK   58  A    between atoms: _138  and  _140
REMARK   59  A    between atoms: _140  and  _141
REMARK   60  A    between atoms: _140  and  _143
REMARK   61  A    between atoms: _143  and  _144
REMARK   62  A    between atoms: _150  and  _152
REMARK   63  A    between atoms: _152  and  _153
REMARK   64  A    between atoms: _152  and  _155
REMARK   65  A    between atoms: _155  and  _156
REMARK   66  A    between atoms: _159  and  _161
REMARK   67  A    between atoms: _161  and  _162
REMARK   68  A    between atoms: _161  and  _164
REMARK   69  A    between atoms: _164  and  _165
REMARK   70  A    between atoms: _169  and  _170
REMARK   71  A    between atoms: _175  and  _177
REMARK   72  A    between atoms: _177  and  _178
REMARK   73  A    between atoms: _177  and  _180
REMARK   74  A    between atoms: _183  and  _185
REMARK   75  A    between atoms: _185  and  _186
REMARK   76  A    between atoms: _185  and  _188
REMARK   77  A    between atoms: _188  and  _189
REMARK   78  A    between atoms: _194  and  _196
REMARK   79  A    between atoms: _196  and  _197
REMARK   80  A    between atoms: _196  and  _199
REMARK   81  A    between atoms: _199  and  _200
REMARK   82  A    between atoms: _203  and  _205
REMARK   83  A    between atoms: _205  and  _206
REMARK   84  A    between atoms: _205  and  _208
REMARK   85  A    between atoms: _208  and  _209
REMARK   86  A    between atoms: _212  and  _214
REMARK   87  A    between atoms: _214  and  _215
REMARK   88  A    between atoms: _217  and  _219
REMARK   89  A    between atoms: _219  and  _220
REMARK   90  A    between atoms: _219  and  _222
REMARK   91  A    between atoms: _222  and  _223
REMARK   92  A    between atoms: _223  and  _224
REMARK   93  A    between atoms: _224  and  _225
REMARK   94  A    between atoms: _234  and  _236
REMARK   95  A    between atoms: _236  and  _237
REMARK   96  A    between atoms: _236  and  _239
REMARK   97  A    between atoms: _239  and  _240
REMARK   98  A    between atoms: _240  and  _241
REMARK   99  A    between atoms: _241  and  _242
REMARK  100  A    between atoms: _251  and  _253
REMARK  101  A    between atoms: _253  and  _254
REMARK  102  A    between atoms: _253  and  _256
REMARK  103  A    between atoms: _256  and  _257
REMARK  104  A    between atoms: _260  and  _262
REMARK  105  A    between atoms: _262  and  _263
REMARK  106  A    between atoms: _262  and  _265
REMARK  107  A    between atoms: _265  and  _266
REMARK  108  A    between atoms: _269  and  _271
REMARK  109  A    between atoms: _271  and  _272
REMARK  110  A    between atoms: _271  and  _274
REMARK  111  A    between atoms: _274  and  _275
REMARK  112  A    between atoms: _278  and  _280
REMARK  113  A    between atoms: _280  and  _281
REMARK  114  A    between atoms: _280  and  _283
REMARK  115  A    between atoms: _283  and  _284
REMARK  116  A    between atoms: _287  and  _289
REMARK  117  A    between atoms: _289  and  _290
REMARK  118  A    between atoms: _292  and  _294
REMARK  119  A    between atoms: _294  and  _295
REMARK  120  A    between atoms: _298  and  _300
REMARK  121  A    between atoms: _300  and  _301
REMARK  122  A    between atoms: _300  and  _303
REMARK  123  A    between atoms: _303  and  _304
REMARK  124  A    between atoms: _307  and  _309
REMARK  125  A    between atoms: _309  and  _310
REMARK  126  A    between atoms: _309  and  _312
REMARK  127  A    between atoms: _312  and  _313
REMARK  128  A    between atoms: _316  and  _318
REMARK  129  A    between atoms: _318  and  _319
REMARK  130  A    between atoms: _318  and  _321
REMARK  131  A    between atoms: _321  and  _322
REMARK  132  A    between atoms: _325  and  _327
REMARK  133  A    between atoms: _327  and  _328
REMARK  134  A    between atoms: _327  and  _330
REMARK  135  A    between atoms: _333  and  _335
REMARK  136  A    between atoms: _335  and  _336
REMARK  137  A    between atoms: _335  and  _338
REMARK  138  A    between atoms: _338  and  _339
REMARK  139  A    between atoms: _339  and  _340
REMARK  140  A    between atoms: _340  and  _341
REMARK  141  A    between atoms: _341  and  _342
REMARK  142  A    between atoms: _346  and  _348
REMARK  143  A    between atoms: _348  and  _349
REMARK  144  A    between atoms: _348  and  _351
REMARK  145  A    between atoms: _351  and  _352
REMARK  146  A    between atoms: _352  and  _353
REMARK  147  A    between atoms: _355  and  _357
REMARK  148  A    between atoms: _357  and  _358
REMARK  149  A    between atoms: _357  and  _360
REMARK  150  A    between atoms: _360  and  _361
REMARK  151  A    between atoms: _364  and  _366
REMARK  152  A    between atoms: _366  and  _367
REMARK  153  A    between atoms: _369  and  _371
REMARK  154  A    between atoms: _371  and  _372
REMARK  155  A    between atoms: _374  and  _376
REMARK  156  A    between atoms: _376  and  _377
REMARK  157  A    between atoms: _376  and  _379
REMARK  158  A    between atoms: _379  and  _380
REMARK  159  A    between atoms: _383  and  _385
REMARK  160  A    between atoms: _385  and  _386
REMARK  161  A    between atoms: _388  and  _390
REMARK  162  A    between atoms: _390  and  _391
REMARK  163  A    between atoms: _393  and  _395
REMARK  164  A    between atoms: _395  and  _396
REMARK  165  A    between atoms: _395  and  _398
REMARK  166  A    between atoms: _398  and  _399
REMARK  167  A    between atoms: _405  and  _407
REMARK  168  A    between atoms: _407  and  _408
REMARK  169  A    between atoms: _407  and  _410
REMARK  170  A    between atoms: _410  and  _411
REMARK  171  A    between atoms: _414  and  _416
REMARK  172  A    between atoms: _416  and  _417
REMARK  173  A    between atoms: _416  and  _419
REMARK  174  A    between atoms: _419  and  _420
REMARK  175  A    between atoms: _424  and  _425
REMARK  176  A    between atoms: _430  and  _432
REMARK  177  A    between atoms: _432  and  _433
REMARK  178  A    between atoms: _432  and  _435
REMARK  179  A    between atoms: _435  and  _436
REMARK  180  A    between atoms: _440  and  _441
REMARK  181  A    between atoms: _446  and  _448
REMARK  182  A    between atoms: _448  and  _449
REMARK  183  A    between atoms: _448  and  _451
REMARK  184  A    between atoms: _454  and  _456
REMARK  185  A    between atoms: _456  and  _457
REMARK  186  A    between atoms: _456  and  _459
REMARK  187  A    between atoms: _459  and  _460
REMARK  188  A    between atoms: _465  and  _467
REMARK  189  A    between atoms: _467  and  _468
REMARK  190  A    between atoms: _467  and  _470
REMARK  191  A    between atoms: _470  and  _471
REMARK  192  A    between atoms: _474  and  _476
REMARK  193  A    between atoms: _476  and  _477
REMARK  194  A    between atoms: _476  and  _479
REMARK  195  A    between atoms: _479  and  _480
REMARK  196  A    between atoms: _483  and  _485
REMARK  197  A    between atoms: _485  and  _486
REMARK  198  A    between atoms: _488  and  _490
REMARK  199  A    between atoms: _490  and  _491
REMARK  200  A    between atoms: _490  and  _493
REMARK  201  A    between atoms: _493  and  _494
REMARK  202  A    between atoms: _494  and  _495
REMARK  203  A    between atoms: _495  and  _496
REMARK  204  A    between atoms: _505  and  _507
REMARK  205  A    between atoms: _507  and  _508
REMARK  206  A    between atoms: _507  and  _510
REMARK  207  A    between atoms: _510  and  _511
REMARK                            x       y       z     vdW  Elec       q    Type
REMARK                         _______ _______ _______ _____ _____    ______ ____
ROOT
ATOM      1  O   HOH     1      12.220  21.069  10.575  0.00  0.00    +0.000 OA
ENDROOT
TORSDOF 0
REMARK  Name = ../refined-set-2016/3gi4/3gi4_pocket.pdb
REMARK  207 active torsions:
REMARK  status: ('A' for Active; 'I' for Inactive)
REMARK    1  A    between atoms: _1  and  _3
REMARK    2  A    between atoms: _3  and  _4
REMARK    3  A    between atoms: _3  and  _6
REMARK    4  A    between atoms: _6  and  _7
REMARK    5  A    between atoms: _7  and  _8
REMARK    6  A    between atoms: _8  and  _9
REMARK    7  A    between atoms: _18  and  _20
REMARK    8  A    between atoms: _20  and  _21
REMARK    9  A    between atoms: _20  and  _23
REMARK   10  A    between atoms: _23  and  _24
REMARK   11  A    between atoms: _27  and  _29
REMARK   12  A    between atoms: _29  and  _30
REMARK   13  A    between atoms: _29  and  _32
REMARK   14  A    between atoms: _32  and  _33
REMARK   15  A    between atoms: _36  and  _38
REMARK   16  A    between atoms: _38  and  _39
REMARK   17  A    between atoms: _38  and  _41
REMARK   18  A    between atoms: _41  and  _42
REMARK   19  A    between atoms: _45  and  _47
REMARK   20  A    between atoms: _47  and  _48
REMARK   21  A    between atoms: _47  and  _50
REMARK   22  A    between atoms: _50  and  _51
REMARK   23  A    between atoms: _54  and  _56
REMARK   24  A    between atoms: _56  and  _57
REMARK   25  A    between atoms: _59  and  _61
REMARK   26  A    between atoms: _61  and  _62
REMARK   27  A    between atoms: _65  and  _67
REMARK   28  A    between atoms: _67  and  _68
REMARK   29  A    between atoms: _67  and  _70
REMARK   30  A    between atoms: _70  and  _71
REMARK   31  A    between atoms: _74  and  _76
REMARK   32  A    between atoms: _76  and  _77
REMARK   33  A    between atoms: _76  and  _79
REMARK   34  A    between atoms: _79  and  _80
REMARK   35  A    between atoms: _83  and  _85
REMARK   36  A    between atoms: _85  and  _86
REMARK   37  A    between atoms: _85  and  _88
REMARK   38  A    between atoms: _88  and  _89
REMARK   39  A    between atoms: _92  and  _94
REMARK   40  A    between atoms: _94  and  _95
REMARK   41  A    between atoms: _94  and  _97
REMARK   42  A    between atoms: _100  and  _102
REMARK   43  A    between atoms: _102  and  _103
REMARK   44  A    between atoms: _102  and  _105
REMARK   45  A    between atoms: _105  and  _106
REMARK   46  A    between atoms: _109  and  _111
REMARK   47  A    between atoms: _111  and  _112
REMARK   48  A    between atoms: _114  and  _116
REMARK   49  A    between atoms: _116  and  _117
REMARK   50  A    between atoms: _119  and  _121
REMARK   51  A    between atoms: _121  and  _122
REMARK   52  A    between atoms: _121  and  _124
REMARK   53  A    between atoms: _124  and  _125
REMARK   54  A    between atoms: _128  and  _130
REMARK   55  A    between atoms: _130  and  _131
REMARK   56  A    between atoms: _133  and  _135
REMARK   57  A    between atoms: _135  and  _136
REMARK   58  A    between atoms: _138  and  _140
REMARK   59  A    between atoms: _140  and  _141
REMARK   60  A    between atoms: _140  and  _143
REMARK   61  A    between atoms: _143  and  _144
REMARK   62  A    between atoms: _150  and  _152
REMARK   63  A    between atoms: _152  and  _153
REMARK   64  A    between atoms: _152  and  _155
REMARK   65  A    between atoms: _155  and  _156
REMARK   66  A    between atoms: _159  and  _161
REMARK   67  A    between atoms: _161  and  _162
REMARK   68  A    between atoms: _161  and  _164
REMARK   69  A    between atoms: _164  and  _165
REMARK   70  A    between atoms: _169  and  _170
REMARK   71  A    between atoms: _175  and  _177
REMARK   72  A    between atoms: _177  and  _178
REMARK   73  A    between atoms: _177  and  _180
REMARK   74  A    between atoms: _183  and  _185
REMARK   75  A    between atoms: _185  and  _186
REMARK   76  A    between atoms: _185  and  _188
REMARK   77  A    between atoms: _188  and  _189
REMARK   78  A    between atoms: _194  and  _196
REMARK   79  A    between atoms: _196  and  _197
REMARK   80  A    between atoms: _196  and  _199
REMARK   81  A    between atoms: _199  and  _200
REMARK   82  A    between atoms: _203  and  _205
REMARK   83  A    between atoms: _205  and  _206
REMARK   84  A    between atoms: _205  and  _208
REMARK   85  A    between atoms: _208  and  _209
REMARK   86  A    between atoms: _212  and  _214
REMARK   87  A    between atoms: _214  and  _215
REMARK   88  A    between atoms: _217  and  _219
REMARK   89  A    between atoms: _219  and  _220
REMARK   90  A    between atoms: _219  and  _222
REMARK   91  A    between atoms: _222  and  _223
REMARK   92  A    between atoms: _223  and  _224
REMARK   93  A    between atoms: _224  and  _225
REMARK   94  A    between atoms: _234  and  _236
REMARK   95  A    between atoms: _236  and  _237
REMARK   96  A    between atoms: _236  and  _239
REMARK   97  A    between atoms: _239  and  _240
REMARK   98  A    between atoms: _240  and  _241
REMARK   99  A    between atoms: _241  and  _242
REMARK  100  A    between atoms: _251  and  _253
REMARK  101  A    between atoms: _253  and  _254
REMARK  102  A    between atoms: _253  and  _256
REMARK  103  A    between atoms: _256  and  _257
REMARK  104  A    between atoms: _260  and  _262
REMARK  105  A    between atoms: _262  and  _263
REMARK  106  A    between atoms: _262  and  _265
REMARK  107  A    between atoms: _265  and  _266
REMARK  108  A    between atoms: _269  and  _271
REMARK  109  A    between atoms: _271  and  _272
REMARK  110  A    between atoms: _271  and  _274
REMARK  111  A    between atoms: _274  and  _275
REMARK  112  A    between atoms: _278  and  _280
REMARK  113  A    between atoms: _280  and  _281
REMARK  114  A    between atoms: _280  and  _283
REMARK  115  A    between atoms: _283  and  _284
REMARK  116  A    between atoms: _287  and  _289
REMARK  117  A    between atoms: _289  and  _290
REMARK  118  A    between atoms: _292  and  _294
REMARK  119  A    between atoms: _294  and  _295
REMARK  120  A    between atoms: _298  and  _300
REMARK  121  A    between atoms: _300  and  _301
REMARK  122  A    between atoms: _300  and  _303
REMARK  123  A    between atoms: _303  and  _304
REMARK  124  A    between atoms: _307  and  _309
REMARK  125  A    between atoms: _309  and  _310
REMARK  126  A    between atoms: _309  and  _312
REMARK  127  A    between atoms: _312  and  _313
REMARK  128  A    between atoms: _316  and  _318
REMARK  129  A    between atoms: _318  and  _319
REMARK  130  A    between atoms: _318  and  _321
REMARK  131  A    between atoms: _321  and  _322
REMARK  132  A    between atoms: _325  and  _327
REMARK  133  A    between atoms: _327  and  _328
REMARK  134  A    between atoms: _327  and  _330
REMARK  135  A    between atoms: _333  and  _335
REMARK  136  A    between atoms: _335  and  _336
REMARK  137  A    between atoms: _335  and  _338
REMARK  138  A    between atoms: _338  and  _339
REMARK  139  A    between atoms: _339  and  _340
REMARK  140  A    between atoms: _340  and  _341
REMARK  141  A    between atoms: _341  and  _342
REMARK  142  A    between atoms: _346  and  _348
REMARK  143  A    between atoms: _348  and  _349
REMARK  144  A    between atoms: _348  and  _351
REMARK  145  A    between atoms: _351  and  _352
REMARK  146  A    between atoms: _352  and  _353
REMARK  147  A    between atoms: _355  and  _357
REMARK  148  A    between atoms: _357  and  _358
REMARK  149  A    between atoms: _357  and  _360
REMARK  150  A    between atoms: _360  and  _361
REMARK  151  A    between atoms: _364  and  _366
REMARK  152  A    between atoms: _366  and  _367
REMARK  153  A    between atoms: _369  and  _371
REMARK  154  A    between atoms: _371  and  _372
REMARK  155  A    between atoms: _374  and  _376
REMARK  156  A    between atoms: _376  and  _377
REMARK  157  A    between atoms: _376  and  _379
REMARK  158  A    between atoms: _379  and  _380
REMARK  159  A    between atoms: _383  and  _385
REMARK  160  A    between atoms: _385  and  _386
REMARK  161  A    between atoms: _388  and  _390
REMARK  162  A    between atoms: _390  and  _391
REMARK  163  A    between atoms: _393  and  _395
REMARK  164  A    between atoms: _395  and  _396
REMARK  165  A    between atoms: _395  and  _398
REMARK  166  A    between atoms: _398  and  _399
REMARK  167  A    between atoms: _405  and  _407
REMARK  168  A    between atoms: _407  and  _408
REMARK  169  A    between atoms: _407  and  _410
REMARK  170  A    between atoms: _410  and  _411
REMARK  171  A    between atoms: _414  and  _416
REMARK  172  A    between atoms: _416  and  _417
REMARK  173  A    between atoms: _416  and  _419
REMARK  174  A    between atoms: _419  and  _420
REMARK  175  A    between atoms: _424  and  _425
REMARK  176  A    between atoms: _430  and  _432
REMARK  177  A    between atoms: _432  and  _433
REMARK  178  A    between atoms: _432  and  _435
REMARK  179  A    between atoms: _435  and  _436
REMARK  180  A    between atoms: _440  and  _441
REMARK  181  A    between atoms: _446  and  _448
REMARK  182  A    between atoms: _448  and  _449
REMARK  183  A    between atoms: _448  and  _451
REMARK  184  A    between atoms: _454  and  _456
REMARK  185  A    between atoms: _456  and  _457
REMARK  186  A    between atoms: _456  and  _459
REMARK  187  A    between atoms: _459  and  _460
REMARK  188  A    between atoms: _465  and  _467
REMARK  189  A    between atoms: _467  and  _468
REMARK  190  A    between atoms: _467  and  _470
REMARK  191  A    between atoms: _470  and  _471
REMARK  192  A    between atoms: _474  and  _476
REMARK  193  A    between atoms: _476  and  _477
REMARK  194  A    between atoms: _476  and  _479
REMARK  195  A    between atoms: _479  and  _480
REMARK  196  A    between atoms: _483  and  _485
REMARK  197  A    between atoms: _485  and  _486
REMARK  198  A    between atoms: _488  and  _490
REMARK  199  A    between atoms: _490  and  _491
REMARK  200  A    between atoms: _490  and  _493
REMARK  201  A    between atoms: _493  and  _494
REMARK  202  A    between atoms: _494  and  _495
REMARK  203  A    between atoms: _495  and  _496
REMARK  204  A    between atoms: _505  and  _507
REMARK  205  A    between atoms: _507  and  _508
REMARK  206  A    between atoms: _507  and  _510
REMARK  207  A    between atoms: _510  and  _511
REMARK                            x       y       z     vdW  Elec       q    Type
REMARK                         _______ _______ _______ _____ _____    ______ ____
ROOT
ATOM      1  O   HOH     1      17.440  39.868  16.422  0.00  0.00    +0.000 OA
ENDROOT
TORSDOF 0
REMARK  Name = ../refined-set-2016/3gi4/3gi4_pocket.pdb
REMARK  207 active torsions:
REMARK  status: ('A' for Active; 'I' for Inactive)
REMARK    1  A    between atoms: _1  and  _3
REMARK    2  A    between atoms: _3  and  _4
REMARK    3  A    between atoms: _3  and  _6
REMARK    4  A    between atoms: _6  and  _7
REMARK    5  A    between atoms: _7  and  _8
REMARK    6  A    between atoms: _8  and  _9
REMARK    7  A    between atoms: _18  and  _20
REMARK    8  A    between atoms: _20  and  _21
REMARK    9  A    between atoms: _20  and  _23
REMARK   10  A    between atoms: _23  and  _24
REMARK   11  A    between atoms: _27  and  _29
REMARK   12  A    between atoms: _29  and  _30
REMARK   13  A    between atoms: _29  and  _32
REMARK   14  A    between atoms: _32  and  _33
REMARK   15  A    between atoms: _36  and  _38
REMARK   16  A    between atoms: _38  and  _39
REMARK   17  A    between atoms: _38  and  _41
REMARK   18  A    between atoms: _41  and  _42
REMARK   19  A    between atoms: _45  and  _47
REMARK   20  A    between atoms: _47  and  _48
REMARK   21  A    between atoms: _47  and  _50
REMARK   22  A    between atoms: _50  and  _51
REMARK   23  A    between atoms: _54  and  _56
REMARK   24  A    between atoms: _56  and  _57
REMARK   25  A    between atoms: _59  and  _61
REMARK   26  A    between atoms: _61  and  _62
REMARK   27  A    between atoms: _65  and  _67
REMARK   28  A    between atoms: _67  and  _68
REMARK   29  A    between atoms: _67  and  _70
REMARK   30  A    between atoms: _70  and  _71
REMARK   31  A    between atoms: _74  and  _76
REMARK   32  A    between atoms: _76  and  _77
REMARK   33  A    between atoms: _76  and  _79
REMARK   34  A    between atoms: _79  and  _80
REMARK   35  A    between atoms: _83  and  _85
REMARK   36  A    between atoms: _85  and  _86
REMARK   37  A    between atoms: _85  and  _88
REMARK   38  A    between atoms: _88  and  _89
REMARK   39  A    between atoms: _92  and  _94
REMARK   40  A    between atoms: _94  and  _95
REMARK   41  A    between atoms: _94  and  _97
REMARK   42  A    between atoms: _100  and  _102
REMARK   43  A    between atoms: _102  and  _103
REMARK   44  A    between atoms: _102  and  _105
REMARK   45  A    between atoms: _105  and  _106
REMARK   46  A    between atoms: _109  and  _111
REMARK   47  A    between atoms: _111  and  _112
REMARK   48  A    between atoms: _114  and  _116
REMARK   49  A    between atoms: _116  and  _117
REMARK   50  A    between atoms: _119  and  _121
REMARK   51  A    between atoms: _121  and  _122
REMARK   52  A    between atoms: _121  and  _124
REMARK   53  A    between atoms: _124  and  _125
REMARK   54  A    between atoms: _128  and  _130
REMARK   55  A    between atoms: _130  and  _131
REMARK   56  A    between atoms: _133  and  _135
REMARK   57  A    between atoms: _135  and  _136
REMARK   58  A    between atoms: _138  and  _140
REMARK   59  A    between atoms: _140  and  _141
REMARK   60  A    between atoms: _140  and  _143
REMARK   61  A    between atoms: _143  and  _144
REMARK   62  A    between atoms: _150  and  _152
REMARK   63  A    between atoms: _152  and  _153
REMARK   64  A    between atoms: _152  and  _155
REMARK   65  A    between atoms: _155  and  _156
REMARK   66  A    between atoms: _159  and  _161
REMARK   67  A    between atoms: _161  and  _162
REMARK   68  A    between atoms: _161  and  _164
REMARK   69  A    between atoms: _164  and  _165
REMARK   70  A    between atoms: _169  and  _170
REMARK   71  A    between atoms: _175  and  _177
REMARK   72  A    between atoms: _177  and  _178
REMARK   73  A    between atoms: _177  and  _180
REMARK   74  A    between atoms: _183  and  _185
REMARK   75  A    between atoms: _185  and  _186
REMARK   76  A    between atoms: _185  and  _188
REMARK   77  A    between atoms: _188  and  _189
REMARK   78  A    between atoms: _194  and  _196
REMARK   79  A    between atoms: _196  and  _197
REMARK   80  A    between atoms: _196  and  _199
REMARK   81  A    between atoms: _199  and  _200
REMARK   82  A    between atoms: _203  and  _205
REMARK   83  A    between atoms: _205  and  _206
REMARK   84  A    between atoms: _205  and  _208
REMARK   85  A    between atoms: _208  and  _209
REMARK   86  A    between atoms: _212  and  _214
REMARK   87  A    between atoms: _214  and  _215
REMARK   88  A    between atoms: _217  and  _219
REMARK   89  A    between atoms: _219  and  _220
REMARK   90  A    between atoms: _219  and  _222
REMARK   91  A    between atoms: _222  and  _223
REMARK   92  A    between atoms: _223  and  _224
REMARK   93  A    between atoms: _224  and  _225
REMARK   94  A    between atoms: _234  and  _236
REMARK   95  A    between atoms: _236  and  _237
REMARK   96  A    between atoms: _236  and  _239
REMARK   97  A    between atoms: _239  and  _240
REMARK   98  A    between atoms: _240  and  _241
REMARK   99  A    between atoms: _241  and  _242
REMARK  100  A    between atoms: _251  and  _253
REMARK  101  A    between atoms: _253  and  _254
REMARK  102  A    between atoms: _253  and  _256
REMARK  103  A    between atoms: _256  and  _257
REMARK  104  A    between atoms: _260  and  _262
REMARK  105  A    between atoms: _262  and  _263
REMARK  106  A    between atoms: _262  and  _265
REMARK  107  A    between atoms: _265  and  _266
REMARK  108  A    between atoms: _269  and  _271
REMARK  109  A    between atoms: _271  and  _272
REMARK  110  A    between atoms: _271  and  _274
REMARK  111  A    between atoms: _274  and  _275
REMARK  112  A    between atoms: _278  and  _280
REMARK  113  A    between atoms: _280  and  _281
REMARK  114  A    between atoms: _280  and  _283
REMARK  115  A    between atoms: _283  and  _284
REMARK  116  A    between atoms: _287  and  _289
REMARK  117  A    between atoms: _289  and  _290
REMARK  118  A    between atoms: _292  and  _294
REMARK  119  A    between atoms: _294  and  _295
REMARK  120  A    between atoms: _298  and  _300
REMARK  121  A    between atoms: _300  and  _301
REMARK  122  A    between atoms: _300  and  _303
REMARK  123  A    between atoms: _303  and  _304
REMARK  124  A    between atoms: _307  and  _309
REMARK  125  A    between atoms: _309  and  _310
REMARK  126  A    between atoms: _309  and  _312
REMARK  127  A    between atoms: _312  and  _313
REMARK  128  A    between atoms: _316  and  _318
REMARK  129  A    between atoms: _318  and  _319
REMARK  130  A    between atoms: _318  and  _321
REMARK  131  A    between atoms: _321  and  _322
REMARK  132  A    between atoms: _325  and  _327
REMARK  133  A    between atoms: _327  and  _328
REMARK  134  A    between atoms: _327  and  _330
REMARK  135  A    between atoms: _333  and  _335
REMARK  136  A    between atoms: _335  and  _336
REMARK  137  A    between atoms: _335  and  _338
REMARK  138  A    between atoms: _338  and  _339
REMARK  139  A    between atoms: _339  and  _340
REMARK  140  A    between atoms: _340  and  _341
REMARK  141  A    between atoms: _341  and  _342
REMARK  142  A    between atoms: _346  and  _348
REMARK  143  A    between atoms: _348  and  _349
REMARK  144  A    between atoms: _348  and  _351
REMARK  145  A    between atoms: _351  and  _352
REMARK  146  A    between atoms: _352  and  _353
REMARK  147  A    between atoms: _355  and  _357
REMARK  148  A    between atoms: _357  and  _358
REMARK  149  A    between atoms: _357  and  _360
REMARK  150  A    between atoms: _360  and  _361
REMARK  151  A    between atoms: _364  and  _366
REMARK  152  A    between atoms: _366  and  _367
REMARK  153  A    between atoms: _369  and  _371
REMARK  154  A    between atoms: _371  and  _372
REMARK  155  A    between atoms: _374  and  _376
REMARK  156  A    between atoms: _376  and  _377
REMARK  157  A    between atoms: _376  and  _379
REMARK  158  A    between atoms: _379  and  _380
REMARK  159  A    between atoms: _383  and  _385
REMARK  160  A    between atoms: _385  and  _386
REMARK  161  A    between atoms: _388  and  _390
REMARK  162  A    between atoms: _390  and  _391
REMARK  163  A    between atoms: _393  and  _395
REMARK  164  A    between atoms: _395  and  _396
REMARK  165  A    between atoms: _395  and  _398
REMARK  166  A    between atoms: _398  and  _399
REMARK  167  A    between atoms: _405  and  _407
REMARK  168  A    between atoms: _407  and  _408
REMARK  169  A    between atoms: _407  and  _410
REMARK  170  A    between atoms: _410  and  _411
REMARK  171  A    between atoms: _414  and  _416
REMARK  172  A    between atoms: _416  and  _417
REMARK  173  A    between atoms: _416  and  _419
REMARK  174  A    between atoms: _419  and  _420
REMARK  175  A    between atoms: _424  and  _425
REMARK  176  A    between atoms: _430  and  _432
REMARK  177  A    between atoms: _432  and  _433
REMARK  178  A    between atoms: _432  and  _435
REMARK  179  A    between atoms: _435  and  _436
REMARK  180  A    between atoms: _440  and  _441
REMARK  181  A    between atoms: _446  and  _448
REMARK  182  A    between atoms: _448  and  _449
REMARK  183  A    between atoms: _448  and  _451
REMARK  184  A    between atoms: _454  and  _456
REMARK  185  A    between atoms: _456  and  _457
REMARK  186  A    between atoms: _456  and  _459
REMARK  187  A    between atoms: _459  and  _460
REMARK  188  A    between atoms: _465  and  _467
REMARK  189  A    between atoms: _467  and  _468
REMARK  190  A    between atoms: _467  and  _470
REMARK  191  A    between atoms: _470  and  _471
REMARK  192  A    between atoms: _474  and  _476
REMARK  193  A    between atoms: _476  and  _477
REMARK  194  A    between atoms: _476  and  _479
REMARK  195  A    between atoms: _479  and  _480
REMARK  196  A    between atoms: _483  and  _485
REMARK  197  A    between atoms: _485  and  _486
REMARK  198  A    between atoms: _488  and  _490
REMARK  199  A    between atoms: _490  and  _491
REMARK  200  A    between atoms: _490  and  _493
REMARK  201  A    between atoms: _493  and  _494
REMARK  202  A    between atoms: _494  and  _495
REMARK  203  A    between atoms: _495  and  _496
REMARK  204  A    between atoms: _505  and  _507
REMARK  205  A    between atoms: _507  and  _508
REMARK  206  A    between atoms: _507  and  _510
REMARK  207  A    between atoms: _510  and  _511
REMARK                            x       y       z     vdW  Elec       q    Type
REMARK                         _______ _______ _______ _____ _____    ______ ____
ROOT
ATOM      1  O   HOH     1      21.019  36.855  16.129  0.00  0.00    +0.000 OA
ENDROOT
TORSDOF 0
