REMARK  Name = ../refined-set-2016/4cwo/4cwo_pocket.pdb
REMARK  215 active torsions:
REMARK  status: ('A' for Active; 'I' for Inactive)
REMARK    1  A    between atoms: _1  and  _3
REMARK    2  A    between atoms: _3  and  _4
REMARK    3  A    between atoms: _3  and  _6
REMARK    4  A    between atoms: _6  and  _7
REMARK    5  A    between atoms: _13  and  _15
REMARK    6  A    between atoms: _15  and  _16
REMARK    7  A    between atoms: _15  and  _18
REMARK    8  A    between atoms: _18  and  _19
REMARK    9  A    between atoms: _22  and  _24
REMARK   10  A    between atoms: _24  and  _25
REMARK   11  A    between atoms: _24  and  _27
REMARK   12  A    between atoms: _27  and  _28
REMARK   13  A    between atoms: _34  and  _36
REMARK   14  A    between atoms: _36  and  _37
REMARK   15  A    between atoms: _36  and  _39
REMARK   16  A    between atoms: _39  and  _40
REMARK   17  A    between atoms: _43  and  _45
REMARK   18  A    between atoms: _45  and  _46
REMARK   19  A    between atoms: _45  and  _48
REMARK   20  A    between atoms: _48  and  _49
REMARK   21  A    between atoms: _49  and  _50
REMARK   22  A    between atoms: _53  and  _55
REMARK   23  A    between atoms: _55  and  _56
REMARK   24  A    between atoms: _55  and  _58
REMARK   25  A    between atoms: _58  and  _59
REMARK   26  A    between atoms: _62  and  _64
REMARK   27  A    between atoms: _64  and  _65
REMARK   28  A    between atoms: _64  and  _67
REMARK   29  A    between atoms: _67  and  _68
REMARK   30  A    between atoms: _71  and  _73
REMARK   31  A    between atoms: _73  and  _74
REMARK   32  A    between atoms: _73  and  _76
REMARK   33  A    between atoms: _76  and  _77
REMARK   34  A    between atoms: _79  and  _81
REMARK   35  A    between atoms: _81  and  _82
REMARK   36  A    between atoms: _81  and  _84
REMARK   37  A    between atoms: _84  and  _85
REMARK   38  A    between atoms: _90  and  _92
REMARK   39  A    between atoms: _92  and  _93
REMARK   40  A    between atoms: _92  and  _95
REMARK   41  A    between atoms: _95  and  _96
REMARK   42  A    between atoms: _98  and  _100
REMARK   43  A    between atoms: _100  and  _101
REMARK   44  A    between atoms: _100  and  _103
REMARK   45  A    between atoms: _103  and  _104
REMARK   46  A    between atoms: _106  and  _108
REMARK   47  A    between atoms: _108  and  _109
REMARK   48  A    between atoms: _108  and  _111
REMARK   49  A    between atoms: _111  and  _112
REMARK   50  A    between atoms: _115  and  _117
REMARK   51  A    between atoms: _117  and  _118
REMARK   52  A    between atoms: _121  and  _123
REMARK   53  A    between atoms: _123  and  _124
REMARK   54  A    between atoms: _123  and  _126
REMARK   55  A    between atoms: _126  and  _127
REMARK   56  A    between atoms: _130  and  _132
REMARK   57  A    between atoms: _132  and  _133
REMARK   58  A    between atoms: _132  and  _135
REMARK   59  A    between atoms: _135  and  _136
REMARK   60  A    between atoms: _139  and  _141
REMARK   61  A    between atoms: _141  and  _142
REMARK   62  A    between atoms: _141  and  _144
REMARK   63  A    between atoms: _147  and  _149
REMARK   64  A    between atoms: _149  and  _150
REMARK   65  A    between atoms: _149  and  _152
REMARK   66  A    between atoms: _152  and  _153
REMARK   67  A    between atoms: _156  and  _158
REMARK   68  A    between atoms: _158  and  _159
REMARK   69  A    between atoms: _158  and  _161
REMARK   70  A    between atoms: _161  and  _162
REMARK   71  A    between atoms: _165  and  _167
REMARK   72  A    between atoms: _167  and  _168
REMARK   73  A    between atoms: _170  and  _172
REMARK   74  A    between atoms: _172  and  _173
REMARK   75  A    between atoms: _172  and  _175
REMARK   76  A    between atoms: _175  and  _176
REMARK   77  A    between atoms: _179  and  _181
REMARK   78  A    between atoms: _181  and  _182
REMARK   79  A    between atoms: _184  and  _186
REMARK   80  A    between atoms: _186  and  _187
REMARK   81  A    between atoms: _186  and  _189
REMARK   82  A    between atoms: _189  and  _190
REMARK   83  A    between atoms: _190  and  _191
REMARK   84  A    between atoms: _193  and  _195
REMARK   85  A    between atoms: _195  and  _196
REMARK   86  A    between atoms: _195  and  _198
REMARK   87  A    between atoms: _198  and  _199
REMARK   88  A    between atoms: _202  and  _204
REMARK   89  A    between atoms: _204  and  _205
REMARK   90  A    between atoms: _204  and  _207
REMARK   91  A    between atoms: _207  and  _208
REMARK   92  A    between atoms: _211  and  _213
REMARK   93  A    between atoms: _213  and  _214
REMARK   94  A    between atoms: _213  and  _216
REMARK   95  A    between atoms: _216  and  _217
REMARK   96  A    between atoms: _220  and  _222
REMARK   97  A    between atoms: _222  and  _223
REMARK   98  A    between atoms: _222  and  _225
REMARK   99  A    between atoms: _225  and  _226
REMARK  100  A    between atoms: _231  and  _233
REMARK  101  A    between atoms: _233  and  _234
REMARK  102  A    between atoms: _233  and  _236
REMARK  103  A    between atoms: _236  and  _237
REMARK  104  A    between atoms: _240  and  _242
REMARK  105  A    between atoms: _242  and  _243
REMARK  106  A    between atoms: _245  and  _247
REMARK  107  A    between atoms: _247  and  _248
REMARK  108  A    between atoms: _247  and  _250
REMARK  109  A    between atoms: _250  and  _251
REMARK  110  A    between atoms: _254  and  _256
REMARK  111  A    between atoms: _256  and  _257
REMARK  112  A    between atoms: _260  and  _262
REMARK  113  A    between atoms: _262  and  _263
REMARK  114  A    between atoms: _262  and  _265
REMARK  115  A    between atoms: _265  and  _266
REMARK  116  A    between atoms: _269  and  _271
REMARK  117  A    between atoms: _271  and  _272
REMARK  118  A    between atoms: _271  and  _274
REMARK  119  A    between atoms: _274  and  _275
REMARK  120  A    between atoms: _281  and  _283
REMARK  121  A    between atoms: _283  and  _284
REMARK  122  A    between atoms: _286  and  _288
REMARK  123  A    between atoms: _288  and  _289
REMARK  124  A    between atoms: _288  and  _291
REMARK  125  A    between atoms: _294  and  _296
REMARK  126  A    between atoms: _296  and  _297
REMARK  127  A    between atoms: _299  and  _301
REMARK  128  A    between atoms: _301  and  _302
REMARK  129  A    between atoms: _301  and  _304
REMARK  130  A    between atoms: _304  and  _305
REMARK  131  A    between atoms: _311  and  _313
REMARK  132  A    between atoms: _313  and  _314
REMARK  133  A    between atoms: _313  and  _316
REMARK  134  A    between atoms: _316  and  _317
REMARK  135  A    between atoms: _322  and  _323
REMARK  136  A    between atoms: _325  and  _327
REMARK  137  A    between atoms: _327  and  _328
REMARK  138  A    between atoms: _327  and  _330
REMARK  139  A    between atoms: _330  and  _331
REMARK  140  A    between atoms: _333  and  _335
REMARK  141  A    between atoms: _335  and  _336
REMARK  142  A    between atoms: _339  and  _341
REMARK  143  A    between atoms: _341  and  _342
REMARK  144  A    between atoms: _341  and  _344
REMARK  145  A    between atoms: _344  and  _345
REMARK  146  A    between atoms: _350  and  _351
REMARK  147  A    between atoms: _353  and  _355
REMARK  148  A    between atoms: _355  and  _356
REMARK  149  A    between atoms: _355  and  _358
REMARK  150  A    between atoms: _361  and  _363
REMARK  151  A    between atoms: _363  and  _364
REMARK  152  A    between atoms: _363  and  _366
REMARK  153  A    between atoms: _366  and  _367
REMARK  154  A    between atoms: _370  and  _372
REMARK  155  A    between atoms: _372  and  _373
REMARK  156  A    between atoms: _372  and  _375
REMARK  157  A    between atoms: _378  and  _380
REMARK  158  A    between atoms: _380  and  _381
REMARK  159  A    between atoms: _380  and  _383
REMARK  160  A    between atoms: _383  and  _384
REMARK  161  A    between atoms: _387  and  _389
REMARK  162  A    between atoms: _389  and  _390
REMARK  163  A    between atoms: _389  and  _392
REMARK  164  A    between atoms: _392  and  _393
REMARK  165  A    between atoms: _396  and  _398
REMARK  166  A    between atoms: _398  and  _399
REMARK  167  A    between atoms: _398  and  _401
REMARK  168  A    between atoms: _401  and  _402
REMARK  169  A    between atoms: _402  and  _403
REMARK  170  A    between atoms: _403  and  _404
REMARK  171  A    between atoms: _404  and  _405
REMARK  172  A    between atoms: _409  and  _411
REMARK  173  A    between atoms: _411  and  _412
REMARK  174  A    between atoms: _411  and  _414
REMARK  175  A    between atoms: _414  and  _415
REMARK  176  A    between atoms: _425  and  _427
REMARK  177  A    between atoms: _427  and  _428
REMARK  178  A    between atoms: _427  and  _430
REMARK  179  A    between atoms: _430  and  _431
REMARK  180  A    between atoms: _431  and  _432
REMARK  181  A    between atoms: _435  and  _437
REMARK  182  A    between atoms: _437  and  _438
REMARK  183  A    between atoms: _437  and  _440
REMARK  184  A    between atoms: _440  and  _441
REMARK  185  A    between atoms: _443  and  _445
REMARK  186  A    between atoms: _445  and  _446
REMARK  187  A    between atoms: _445  and  _448
REMARK  188  A    between atoms: _448  and  _449
REMARK  189  A    between atoms: _455  and  _457
REMARK  190  A    between atoms: _457  and  _458
REMARK  191  A    between atoms: _457  and  _460
REMARK  192  A    between atoms: _460  and  _461
REMARK  193  A    between atoms: _464  and  _466
REMARK  194  A    between atoms: _466  and  _467
REMARK  195  A    between atoms: _466  and  _469
REMARK  196  A    between atoms: _472  and  _474
REMARK  197  A    between atoms: _474  and  _475
REMARK  198  A    between atoms: _477  and  _479
REMARK  199  A    between atoms: _479  and  _480
REMARK  200  A    between atoms: _479  and  _482
REMARK  201  A    between atoms: _482  and  _483
REMARK  202  A    between atoms: _486  and  _488
REMARK  203  A    between atoms: _488  and  _489
REMARK  204  A    between atoms: _488  and  _491
REMARK  205  A    between atoms: _491  and  _492
REMARK  206  A    between atoms: _492  and  _493
REMARK  207  A    between atoms: _493  and  _494
REMARK  208  A    between atoms: _494  and  _495
REMARK  209  A    between atoms: _499  and  _501
REMARK  210  A    between atoms: _501  and  _502
REMARK  211  A    between atoms: _501  and  _504
REMARK  212  A    between atoms: _507  and  _509
REMARK  213  A    between atoms: _509  and  _510
REMARK  214  A    between atoms: _509  and  _512
REMARK  215  A    between atoms: _512  and  _513
REMARK                            x       y       z     vdW  Elec       q    Type
REMARK                         _______ _______ _______ _____ _____    ______ ____
ROOT
ATOM      1  CB  PHE A   1      15.755  17.628  24.262  0.00  0.00    +0.051 C 
ENDROOT
BRANCH   1   2
ATOM      2  CG  PHE A   1      14.336  18.092  24.098  0.00  0.00    -0.020 A 
ATOM      3  CD2 PHE A   1      13.270  17.293  24.523  0.00  0.00    -0.004 A 
ATOM      4  CE2 PHE A   1      11.955  17.715  24.362  0.00  0.00    -0.000 A 
ATOM      5  CZ  PHE A   1      11.693  18.950  23.764  0.00  0.00    -0.000 A 
ATOM      6  CE1 PHE A   1      12.748  19.751  23.342  0.00  0.00    -0.000 A 
ATOM      7  CD1 PHE A   1      14.061  19.313  23.501  0.00  0.00    -0.004 A 
ENDBRANCH   1   2
BRANCH   1   8
ATOM      8  CA  PHE A   1      16.216  17.493  25.725  0.00  0.00    +0.137 C 
BRANCH   8   9
ATOM      9  N   PHE A   1      16.563  18.795  26.293  0.00  0.00    -0.239 NA
ATOM     10  H   PHE A   1      16.517  19.644  25.695  0.00  0.00    +0.142 HD
ENDBRANCH   8   9
BRANCH   8  11
ATOM     11  C   PHE A   1      17.471  16.637  25.739  0.00  0.00    +0.224 C 
ATOM     12  O   PHE A   1      18.576  17.163  25.607  0.00  0.00    -0.287 OA
ENDBRANCH   8  11
ENDBRANCH   1   8
TORSDOF 4
REMARK  Name = ../refined-set-2016/4cwo/4cwo_pocket.pdb
REMARK  215 active torsions:
REMARK  status: ('A' for Active; 'I' for Inactive)
REMARK    1  A    between atoms: _1  and  _3
REMARK    2  A    between atoms: _3  and  _4
REMARK    3  A    between atoms: _3  and  _6
REMARK    4  A    between atoms: _6  and  _7
REMARK    5  A    between atoms: _13  and  _15
REMARK    6  A    between atoms: _15  and  _16
REMARK    7  A    between atoms: _15  and  _18
REMARK    8  A    between atoms: _18  and  _19
REMARK    9  A    between atoms: _22  and  _24
REMARK   10  A    between atoms: _24  and  _25
REMARK   11  A    between atoms: _24  and  _27
REMARK   12  A    between atoms: _27  and  _28
REMARK   13  A    between atoms: _34  and  _36
REMARK   14  A    between atoms: _36  and  _37
REMARK   15  A    between atoms: _36  and  _39
REMARK   16  A    between atoms: _39  and  _40
REMARK   17  A    between atoms: _43  and  _45
REMARK   18  A    between atoms: _45  and  _46
REMARK   19  A    between atoms: _45  and  _48
REMARK   20  A    between atoms: _48  and  _49
REMARK   21  A    between atoms: _49  and  _50
REMARK   22  A    between atoms: _53  and  _55
REMARK   23  A    between atoms: _55  and  _56
REMARK   24  A    between atoms: _55  and  _58
REMARK   25  A    between atoms: _58  and  _59
REMARK   26  A    between atoms: _62  and  _64
REMARK   27  A    between atoms: _64  and  _65
REMARK   28  A    between atoms: _64  and  _67
REMARK   29  A    between atoms: _67  and  _68
REMARK   30  A    between atoms: _71  and  _73
REMARK   31  A    between atoms: _73  and  _74
REMARK   32  A    between atoms: _73  and  _76
REMARK   33  A    between atoms: _76  and  _77
REMARK   34  A    between atoms: _79  and  _81
REMARK   35  A    between atoms: _81  and  _82
REMARK   36  A    between atoms: _81  and  _84
REMARK   37  A    between atoms: _84  and  _85
REMARK   38  A    between atoms: _90  and  _92
REMARK   39  A    between atoms: _92  and  _93
REMARK   40  A    between atoms: _92  and  _95
REMARK   41  A    between atoms: _95  and  _96
REMARK   42  A    between atoms: _98  and  _100
REMARK   43  A    between atoms: _100  and  _101
REMARK   44  A    between atoms: _100  and  _103
REMARK   45  A    between atoms: _103  and  _104
REMARK   46  A    between atoms: _106  and  _108
REMARK   47  A    between atoms: _108  and  _109
REMARK   48  A    between atoms: _108  and  _111
REMARK   49  A    between atoms: _111  and  _112
REMARK   50  A    between atoms: _115  and  _117
REMARK   51  A    between atoms: _117  and  _118
REMARK   52  A    between atoms: _121  and  _123
REMARK   53  A    between atoms: _123  and  _124
REMARK   54  A    between atoms: _123  and  _126
REMARK   55  A    between atoms: _126  and  _127
REMARK   56  A    between atoms: _130  and  _132
REMARK   57  A    between atoms: _132  and  _133
REMARK   58  A    between atoms: _132  and  _135
REMARK   59  A    between atoms: _135  and  _136
REMARK   60  A    between atoms: _139  and  _141
REMARK   61  A    between atoms: _141  and  _142
REMARK   62  A    between atoms: _141  and  _144
REMARK   63  A    between atoms: _147  and  _149
REMARK   64  A    between atoms: _149  and  _150
REMARK   65  A    between atoms: _149  and  _152
REMARK   66  A    between atoms: _152  and  _153
REMARK   67  A    between atoms: _156  and  _158
REMARK   68  A    between atoms: _158  and  _159
REMARK   69  A    between atoms: _158  and  _161
REMARK   70  A    between atoms: _161  and  _162
REMARK   71  A    between atoms: _165  and  _167
REMARK   72  A    between atoms: _167  and  _168
REMARK   73  A    between atoms: _170  and  _172
REMARK   74  A    between atoms: _172  and  _173
REMARK   75  A    between atoms: _172  and  _175
REMARK   76  A    between atoms: _175  and  _176
REMARK   77  A    between atoms: _179  and  _181
REMARK   78  A    between atoms: _181  and  _182
REMARK   79  A    between atoms: _184  and  _186
REMARK   80  A    between atoms: _186  and  _187
REMARK   81  A    between atoms: _186  and  _189
REMARK   82  A    between atoms: _189  and  _190
REMARK   83  A    between atoms: _190  and  _191
REMARK   84  A    between atoms: _193  and  _195
REMARK   85  A    between atoms: _195  and  _196
REMARK   86  A    between atoms: _195  and  _198
REMARK   87  A    between atoms: _198  and  _199
REMARK   88  A    between atoms: _202  and  _204
REMARK   89  A    between atoms: _204  and  _205
REMARK   90  A    between atoms: _204  and  _207
REMARK   91  A    between atoms: _207  and  _208
REMARK   92  A    between atoms: _211  and  _213
REMARK   93  A    between atoms: _213  and  _214
REMARK   94  A    between atoms: _213  and  _216
REMARK   95  A    between atoms: _216  and  _217
REMARK   96  A    between atoms: _220  and  _222
REMARK   97  A    between atoms: _222  and  _223
REMARK   98  A    between atoms: _222  and  _225
REMARK   99  A    between atoms: _225  and  _226
REMARK  100  A    between atoms: _231  and  _233
REMARK  101  A    between atoms: _233  and  _234
REMARK  102  A    between atoms: _233  and  _236
REMARK  103  A    between atoms: _236  and  _237
REMARK  104  A    between atoms: _240  and  _242
REMARK  105  A    between atoms: _242  and  _243
REMARK  106  A    between atoms: _245  and  _247
REMARK  107  A    between atoms: _247  and  _248
REMARK  108  A    between atoms: _247  and  _250
REMARK  109  A    between atoms: _250  and  _251
REMARK  110  A    between atoms: _254  and  _256
REMARK  111  A    between atoms: _256  and  _257
REMARK  112  A    between atoms: _260  and  _262
REMARK  113  A    between atoms: _262  and  _263
REMARK  114  A    between atoms: _262  and  _265
REMARK  115  A    between atoms: _265  and  _266
REMARK  116  A    between atoms: _269  and  _271
REMARK  117  A    between atoms: _271  and  _272
REMARK  118  A    between atoms: _271  and  _274
REMARK  119  A    between atoms: _274  and  _275
REMARK  120  A    between atoms: _281  and  _283
REMARK  121  A    between atoms: _283  and  _284
REMARK  122  A    between atoms: _286  and  _288
REMARK  123  A    between atoms: _288  and  _289
REMARK  124  A    between atoms: _288  and  _291
REMARK  125  A    between atoms: _294  and  _296
REMARK  126  A    between atoms: _296  and  _297
REMARK  127  A    between atoms: _299  and  _301
REMARK  128  A    between atoms: _301  and  _302
REMARK  129  A    between atoms: _301  and  _304
REMARK  130  A    between atoms: _304  and  _305
REMARK  131  A    between atoms: _311  and  _313
REMARK  132  A    between atoms: _313  and  _314
REMARK  133  A    between atoms: _313  and  _316
REMARK  134  A    between atoms: _316  and  _317
REMARK  135  A    between atoms: _322  and  _323
REMARK  136  A    between atoms: _325  and  _327
REMARK  137  A    between atoms: _327  and  _328
REMARK  138  A    between atoms: _327  and  _330
REMARK  139  A    between atoms: _330  and  _331
REMARK  140  A    between atoms: _333  and  _335
REMARK  141  A    between atoms: _335  and  _336
REMARK  142  A    between atoms: _339  and  _341
REMARK  143  A    between atoms: _341  and  _342
REMARK  144  A    between atoms: _341  and  _344
REMARK  145  A    between atoms: _344  and  _345
REMARK  146  A    between atoms: _350  and  _351
REMARK  147  A    between atoms: _353  and  _355
REMARK  148  A    between atoms: _355  and  _356
REMARK  149  A    between atoms: _355  and  _358
REMARK  150  A    between atoms: _361  and  _363
REMARK  151  A    between atoms: _363  and  _364
REMARK  152  A    between atoms: _363  and  _366
REMARK  153  A    between atoms: _366  and  _367
REMARK  154  A    between atoms: _370  and  _372
REMARK  155  A    between atoms: _372  and  _373
REMARK  156  A    between atoms: _372  and  _375
REMARK  157  A    between atoms: _378  and  _380
REMARK  158  A    between atoms: _380  and  _381
REMARK  159  A    between atoms: _380  and  _383
REMARK  160  A    between atoms: _383  and  _384
REMARK  161  A    between atoms: _387  and  _389
REMARK  162  A    between atoms: _389  and  _390
REMARK  163  A    between atoms: _389  and  _392
REMARK  164  A    between atoms: _392  and  _393
REMARK  165  A    between atoms: _396  and  _398
REMARK  166  A    between atoms: _398  and  _399
REMARK  167  A    between atoms: _398  and  _401
REMARK  168  A    between atoms: _401  and  _402
REMARK  169  A    between atoms: _402  and  _403
REMARK  170  A    between atoms: _403  and  _404
REMARK  171  A    between atoms: _404  and  _405
REMARK  172  A    between atoms: _409  and  _411
REMARK  173  A    between atoms: _411  and  _412
REMARK  174  A    between atoms: _411  and  _414
REMARK  175  A    between atoms: _414  and  _415
REMARK  176  A    between atoms: _425  and  _427
REMARK  177  A    between atoms: _427  and  _428
REMARK  178  A    between atoms: _427  and  _430
REMARK  179  A    between atoms: _430  and  _431
REMARK  180  A    between atoms: _431  and  _432
REMARK  181  A    between atoms: _435  and  _437
REMARK  182  A    between atoms: _437  and  _438
REMARK  183  A    between atoms: _437  and  _440
REMARK  184  A    between atoms: _440  and  _441
REMARK  185  A    between atoms: _443  and  _445
REMARK  186  A    between atoms: _445  and  _446
REMARK  187  A    between atoms: _445  and  _448
REMARK  188  A    between atoms: _448  and  _449
REMARK  189  A    between atoms: _455  and  _457
REMARK  190  A    between atoms: _457  and  _458
REMARK  191  A    between atoms: _457  and  _460
REMARK  192  A    between atoms: _460  and  _461
REMARK  193  A    between atoms: _464  and  _466
REMARK  194  A    between atoms: _466  and  _467
REMARK  195  A    between atoms: _466  and  _469
REMARK  196  A    between atoms: _472  and  _474
REMARK  197  A    between atoms: _474  and  _475
REMARK  198  A    between atoms: _477  and  _479
REMARK  199  A    between atoms: _479  and  _480
REMARK  200  A    between atoms: _479  and  _482
REMARK  201  A    between atoms: _482  and  _483
REMARK  202  A    between atoms: _486  and  _488
REMARK  203  A    between atoms: _488  and  _489
REMARK  204  A    between atoms: _488  and  _491
REMARK  205  A    between atoms: _491  and  _492
REMARK  206  A    between atoms: _492  and  _493
REMARK  207  A    between atoms: _493  and  _494
REMARK  208  A    between atoms: _494  and  _495
REMARK  209  A    between atoms: _499  and  _501
REMARK  210  A    between atoms: _501  and  _502
REMARK  211  A    between atoms: _501  and  _504
REMARK  212  A    between atoms: _507  and  _509
REMARK  213  A    between atoms: _509  and  _510
REMARK  214  A    between atoms: _509  and  _512
REMARK  215  A    between atoms: _512  and  _513
REMARK                            x       y       z     vdW  Elec       q    Type
REMARK                         _______ _______ _______ _____ _____    ______ ____
ROOT
ATOM      1  CA  ILE A   1      15.514  13.788  20.773  0.00  0.00    +0.133 C 
ENDROOT
BRANCH   1   2
ATOM      2  N   ILE A   1      16.809  13.136  21.003  0.00  0.00    -0.239 NA
ATOM      3  H   ILE A   1      17.146  13.032  21.981  0.00  0.00    +0.142 HD
ENDBRANCH   1   2
BRANCH   1   4
ATOM      4  CB  ILE A   1      14.725  13.934  22.085  0.00  0.00    +0.023 C 
ATOM      5  CG2 ILE A   1      13.352  14.525  21.818  0.00  0.00    +0.002 C 
BRANCH   4   6
ATOM      6  CG1 ILE A   1      14.671  12.601  22.870  0.00  0.00    +0.002 C 
ATOM      7  CD1 ILE A   1      14.120  11.408  22.103  0.00  0.00    +0.000 C 
ENDBRANCH   4   6
ENDBRANCH   1   4
BRANCH   1   8
ATOM      8  C   ILE A   1      15.696  15.156  20.089  0.00  0.00    +0.224 C 
ATOM      9  O   ILE A   1      15.011  15.445  19.120  0.00  0.00    -0.287 OA
ENDBRANCH   1   8
TORSDOF 4
REMARK  Name = ../refined-set-2016/4cwo/4cwo_pocket.pdb
REMARK  215 active torsions:
REMARK  status: ('A' for Active; 'I' for Inactive)
REMARK    1  A    between atoms: _1  and  _3
REMARK    2  A    between atoms: _3  and  _4
REMARK    3  A    between atoms: _3  and  _6
REMARK    4  A    between atoms: _6  and  _7
REMARK    5  A    between atoms: _13  and  _15
REMARK    6  A    between atoms: _15  and  _16
REMARK    7  A    between atoms: _15  and  _18
REMARK    8  A    between atoms: _18  and  _19
REMARK    9  A    between atoms: _22  and  _24
REMARK   10  A    between atoms: _24  and  _25
REMARK   11  A    between atoms: _24  and  _27
REMARK   12  A    between atoms: _27  and  _28
REMARK   13  A    between atoms: _34  and  _36
REMARK   14  A    between atoms: _36  and  _37
REMARK   15  A    between atoms: _36  and  _39
REMARK   16  A    between atoms: _39  and  _40
REMARK   17  A    between atoms: _43  and  _45
REMARK   18  A    between atoms: _45  and  _46
REMARK   19  A    between atoms: _45  and  _48
REMARK   20  A    between atoms: _48  and  _49
REMARK   21  A    between atoms: _49  and  _50
REMARK   22  A    between atoms: _53  and  _55
REMARK   23  A    between atoms: _55  and  _56
REMARK   24  A    between atoms: _55  and  _58
REMARK   25  A    between atoms: _58  and  _59
REMARK   26  A    between atoms: _62  and  _64
REMARK   27  A    between atoms: _64  and  _65
REMARK   28  A    between atoms: _64  and  _67
REMARK   29  A    between atoms: _67  and  _68
REMARK   30  A    between atoms: _71  and  _73
REMARK   31  A    between atoms: _73  and  _74
REMARK   32  A    between atoms: _73  and  _76
REMARK   33  A    between atoms: _76  and  _77
REMARK   34  A    between atoms: _79  and  _81
REMARK   35  A    between atoms: _81  and  _82
REMARK   36  A    between atoms: _81  and  _84
REMARK   37  A    between atoms: _84  and  _85
REMARK   38  A    between atoms: _90  and  _92
REMARK   39  A    between atoms: _92  and  _93
REMARK   40  A    between atoms: _92  and  _95
REMARK   41  A    between atoms: _95  and  _96
REMARK   42  A    between atoms: _98  and  _100
REMARK   43  A    between atoms: _100  and  _101
REMARK   44  A    between atoms: _100  and  _103
REMARK   45  A    between atoms: _103  and  _104
REMARK   46  A    between atoms: _106  and  _108
REMARK   47  A    between atoms: _108  and  _109
REMARK   48  A    between atoms: _108  and  _111
REMARK   49  A    between atoms: _111  and  _112
REMARK   50  A    between atoms: _115  and  _117
REMARK   51  A    between atoms: _117  and  _118
REMARK   52  A    between atoms: _121  and  _123
REMARK   53  A    between atoms: _123  and  _124
REMARK   54  A    between atoms: _123  and  _126
REMARK   55  A    between atoms: _126  and  _127
REMARK   56  A    between atoms: _130  and  _132
REMARK   57  A    between atoms: _132  and  _133
REMARK   58  A    between atoms: _132  and  _135
REMARK   59  A    between atoms: _135  and  _136
REMARK   60  A    between atoms: _139  and  _141
REMARK   61  A    between atoms: _141  and  _142
REMARK   62  A    between atoms: _141  and  _144
REMARK   63  A    between atoms: _147  and  _149
REMARK   64  A    between atoms: _149  and  _150
REMARK   65  A    between atoms: _149  and  _152
REMARK   66  A    between atoms: _152  and  _153
REMARK   67  A    between atoms: _156  and  _158
REMARK   68  A    between atoms: _158  and  _159
REMARK   69  A    between atoms: _158  and  _161
REMARK   70  A    between atoms: _161  and  _162
REMARK   71  A    between atoms: _165  and  _167
REMARK   72  A    between atoms: _167  and  _168
REMARK   73  A    between atoms: _170  and  _172
REMARK   74  A    between atoms: _172  and  _173
REMARK   75  A    between atoms: _172  and  _175
REMARK   76  A    between atoms: _175  and  _176
REMARK   77  A    between atoms: _179  and  _181
REMARK   78  A    between atoms: _181  and  _182
REMARK   79  A    between atoms: _184  and  _186
REMARK   80  A    between atoms: _186  and  _187
REMARK   81  A    between atoms: _186  and  _189
REMARK   82  A    between atoms: _189  and  _190
REMARK   83  A    between atoms: _190  and  _191
REMARK   84  A    between atoms: _193  and  _195
REMARK   85  A    between atoms: _195  and  _196
REMARK   86  A    between atoms: _195  and  _198
REMARK   87  A    between atoms: _198  and  _199
REMARK   88  A    between atoms: _202  and  _204
REMARK   89  A    between atoms: _204  and  _205
REMARK   90  A    between atoms: _204  and  _207
REMARK   91  A    between atoms: _207  and  _208
REMARK   92  A    between atoms: _211  and  _213
REMARK   93  A    between atoms: _213  and  _214
REMARK   94  A    between atoms: _213  and  _216
REMARK   95  A    between atoms: _216  and  _217
REMARK   96  A    between atoms: _220  and  _222
REMARK   97  A    between atoms: _222  and  _223
REMARK   98  A    between atoms: _222  and  _225
REMARK   99  A    between atoms: _225  and  _226
REMARK  100  A    between atoms: _231  and  _233
REMARK  101  A    between atoms: _233  and  _234
REMARK  102  A    between atoms: _233  and  _236
REMARK  103  A    between atoms: _236  and  _237
REMARK  104  A    between atoms: _240  and  _242
REMARK  105  A    between atoms: _242  and  _243
REMARK  106  A    between atoms: _245  and  _247
REMARK  107  A    between atoms: _247  and  _248
REMARK  108  A    between atoms: _247  and  _250
REMARK  109  A    between atoms: _250  and  _251
REMARK  110  A    between atoms: _254  and  _256
REMARK  111  A    between atoms: _256  and  _257
REMARK  112  A    between atoms: _260  and  _262
REMARK  113  A    between atoms: _262  and  _263
REMARK  114  A    between atoms: _262  and  _265
REMARK  115  A    between atoms: _265  and  _266
REMARK  116  A    between atoms: _269  and  _271
REMARK  117  A    between atoms: _271  and  _272
REMARK  118  A    between atoms: _271  and  _274
REMARK  119  A    between atoms: _274  and  _275
REMARK  120  A    between atoms: _281  and  _283
REMARK  121  A    between atoms: _283  and  _284
REMARK  122  A    between atoms: _286  and  _288
REMARK  123  A    between atoms: _288  and  _289
REMARK  124  A    between atoms: _288  and  _291
REMARK  125  A    between atoms: _294  and  _296
REMARK  126  A    between atoms: _296  and  _297
REMARK  127  A    between atoms: _299  and  _301
REMARK  128  A    between atoms: _301  and  _302
REMARK  129  A    between atoms: _301  and  _304
REMARK  130  A    between atoms: _304  and  _305
REMARK  131  A    between atoms: _311  and  _313
REMARK  132  A    between atoms: _313  and  _314
REMARK  133  A    between atoms: _313  and  _316
REMARK  134  A    between atoms: _316  and  _317
REMARK  135  A    between atoms: _322  and  _323
REMARK  136  A    between atoms: _325  and  _327
REMARK  137  A    between atoms: _327  and  _328
REMARK  138  A    between atoms: _327  and  _330
REMARK  139  A    between atoms: _330  and  _331
REMARK  140  A    between atoms: _333  and  _335
REMARK  141  A    between atoms: _335  and  _336
REMARK  142  A    between atoms: _339  and  _341
REMARK  143  A    between atoms: _341  and  _342
REMARK  144  A    between atoms: _341  and  _344
REMARK  145  A    between atoms: _344  and  _345
REMARK  146  A    between atoms: _350  and  _351
REMARK  147  A    between atoms: _353  and  _355
REMARK  148  A    between atoms: _355  and  _356
REMARK  149  A    between atoms: _355  and  _358
REMARK  150  A    between atoms: _361  and  _363
REMARK  151  A    between atoms: _363  and  _364
REMARK  152  A    between atoms: _363  and  _366
REMARK  153  A    between atoms: _366  and  _367
REMARK  154  A    between atoms: _370  and  _372
REMARK  155  A    between atoms: _372  and  _373
REMARK  156  A    between atoms: _372  and  _375
REMARK  157  A    between atoms: _378  and  _380
REMARK  158  A    between atoms: _380  and  _381
REMARK  159  A    between atoms: _380  and  _383
REMARK  160  A    between atoms: _383  and  _384
REMARK  161  A    between atoms: _387  and  _389
REMARK  162  A    between atoms: _389  and  _390
REMARK  163  A    between atoms: _389  and  _392
REMARK  164  A    between atoms: _392  and  _393
REMARK  165  A    between atoms: _396  and  _398
REMARK  166  A    between atoms: _398  and  _399
REMARK  167  A    between atoms: _398  and  _401
REMARK  168  A    between atoms: _401  and  _402
REMARK  169  A    between atoms: _402  and  _403
REMARK  170  A    between atoms: _403  and  _404
REMARK  171  A    between atoms: _404  and  _405
REMARK  172  A    between atoms: _409  and  _411
REMARK  173  A    between atoms: _411  and  _412
REMARK  174  A    between atoms: _411  and  _414
REMARK  175  A    between atoms: _414  and  _415
REMARK  176  A    between atoms: _425  and  _427
REMARK  177  A    between atoms: _427  and  _428
REMARK  178  A    between atoms: _427  and  _430
REMARK  179  A    between atoms: _430  and  _431
REMARK  180  A    between atoms: _431  and  _432
REMARK  181  A    between atoms: _435  and  _437
REMARK  182  A    between atoms: _437  and  _438
REMARK  183  A    between atoms: _437  and  _440
REMARK  184  A    between atoms: _440  and  _441
REMARK  185  A    between atoms: _443  and  _445
REMARK  186  A    between atoms: _445  and  _446
REMARK  187  A    between atoms: _445  and  _448
REMARK  188  A    between atoms: _448  and  _449
REMARK  189  A    between atoms: _455  and  _457
REMARK  190  A    between atoms: _457  and  _458
REMARK  191  A    between atoms: _457  and  _460
REMARK  192  A    between atoms: _460  and  _461
REMARK  193  A    between atoms: _464  and  _466
REMARK  194  A    between atoms: _466  and  _467
REMARK  195  A    between atoms: _466  and  _469
REMARK  196  A    between atoms: _472  and  _474
REMARK  197  A    between atoms: _474  and  _475
REMARK  198  A    between atoms: _477  and  _479
REMARK  199  A    between atoms: _479  and  _480
REMARK  200  A    between atoms: _479  and  _482
REMARK  201  A    between atoms: _482  and  _483
REMARK  202  A    between atoms: _486  and  _488
REMARK  203  A    between atoms: _488  and  _489
REMARK  204  A    between atoms: _488  and  _491
REMARK  205  A    between atoms: _491  and  _492
REMARK  206  A    between atoms: _492  and  _493
REMARK  207  A    between atoms: _493  and  _494
REMARK  208  A    between atoms: _494  and  _495
REMARK  209  A    between atoms: _499  and  _501
REMARK  210  A    between atoms: _501  and  _502
REMARK  211  A    between atoms: _501  and  _504
REMARK  212  A    between atoms: _507  and  _509
REMARK  213  A    between atoms: _509  and  _510
REMARK  214  A    between atoms: _509  and  _512
REMARK  215  A    between atoms: _512  and  _513
REMARK                            x       y       z     vdW  Elec       q    Type
REMARK                         _______ _______ _______ _____ _____    ______ ____
ROOT
ATOM      1  C   PHE A   1      -0.231  14.012  12.884  0.00  0.00    +0.239 C 
ATOM      2  O   PHE A   1      -0.197  13.690  14.079  0.00  0.00    -0.274 OA
ATOM      3  N   LEU A   2      -1.370  14.152  12.197  0.00  0.00    -0.298 N 
ATOM      4  H   LEU A   2      -1.331  14.348  11.176  0.00  0.00    +0.150 HD
ENDROOT
BRANCH   1   5
ATOM      5  CA  PHE A   1       1.061  14.304  12.131  0.00  0.00    +0.149 C 
BRANCH   5   6
ATOM      6  N   PHE A   1       0.974  13.885  10.734  0.00  0.00    -0.238 NA
ATOM      7  H   PHE A   1       1.213  14.564   9.984  0.00  0.00    +0.142 HD
ENDBRANCH   5   6
BRANCH   5   8
ATOM      8  CB  PHE A   1       1.387  15.807  12.259  0.00  0.00    +0.053 C 
BRANCH   8   9
ATOM      9  CG  PHE A   1       0.170  16.698  12.159  0.00  0.00    -0.020 A 
ATOM     10  CD2 PHE A   1      -0.563  17.033  13.293  0.00  0.00    -0.004 A 
ATOM     11  CE2 PHE A   1      -1.697  17.830  13.193  0.00  0.00    -0.000 A 
ATOM     12  CZ  PHE A   1      -2.128  18.297  11.951  0.00  0.00    -0.000 A 
ATOM     13  CE1 PHE A   1      -1.411  17.957  10.817  0.00  0.00    -0.000 A 
ATOM     14  CD1 PHE A   1      -0.267  17.164  10.923  0.00  0.00    -0.004 A 
ENDBRANCH   8   9
ENDBRANCH   5   8
ENDBRANCH   1   5
BRANCH   3  15
ATOM     15  CA  LEU A   2      -2.675  14.033  12.862  0.00  0.00    +0.137 C 
BRANCH  15  16
ATOM     16  C   LEU A   2      -2.947  12.597  13.299  0.00  0.00    +0.227 C 
ATOM     17  O   LEU A   2      -3.349  12.373  14.438  0.00  0.00    -0.286 OA
ENDBRANCH  15  16
BRANCH  15  18
ATOM     18  CB  LEU A   2      -3.822  14.571  11.999  0.00  0.00    +0.028 C 
BRANCH  18  19
ATOM     19  CG  LEU A   2      -5.159  14.728  12.757  0.00  0.00    +0.002 C 
ATOM     20  CD2 LEU A   2      -5.030  15.537  14.051  0.00  0.00    +0.000 C 
ATOM     21  CD1 LEU A   2      -6.256  15.340  11.895  0.00  0.00    +0.000 C 
ENDBRANCH  18  19
ENDBRANCH  15  18
ENDBRANCH   3  15
TORSDOF 8
REMARK  Name = ../refined-set-2016/4cwo/4cwo_pocket.pdb
REMARK  215 active torsions:
REMARK  status: ('A' for Active; 'I' for Inactive)
REMARK    1  A    between atoms: _1  and  _3
REMARK    2  A    between atoms: _3  and  _4
REMARK    3  A    between atoms: _3  and  _6
REMARK    4  A    between atoms: _6  and  _7
REMARK    5  A    between atoms: _13  and  _15
REMARK    6  A    between atoms: _15  and  _16
REMARK    7  A    between atoms: _15  and  _18
REMARK    8  A    between atoms: _18  and  _19
REMARK    9  A    between atoms: _22  and  _24
REMARK   10  A    between atoms: _24  and  _25
REMARK   11  A    between atoms: _24  and  _27
REMARK   12  A    between atoms: _27  and  _28
REMARK   13  A    between atoms: _34  and  _36
REMARK   14  A    between atoms: _36  and  _37
REMARK   15  A    between atoms: _36  and  _39
REMARK   16  A    between atoms: _39  and  _40
REMARK   17  A    between atoms: _43  and  _45
REMARK   18  A    between atoms: _45  and  _46
REMARK   19  A    between atoms: _45  and  _48
REMARK   20  A    between atoms: _48  and  _49
REMARK   21  A    between atoms: _49  and  _50
REMARK   22  A    between atoms: _53  and  _55
REMARK   23  A    between atoms: _55  and  _56
REMARK   24  A    between atoms: _55  and  _58
REMARK   25  A    between atoms: _58  and  _59
REMARK   26  A    between atoms: _62  and  _64
REMARK   27  A    between atoms: _64  and  _65
REMARK   28  A    between atoms: _64  and  _67
REMARK   29  A    between atoms: _67  and  _68
REMARK   30  A    between atoms: _71  and  _73
REMARK   31  A    between atoms: _73  and  _74
REMARK   32  A    between atoms: _73  and  _76
REMARK   33  A    between atoms: _76  and  _77
REMARK   34  A    between atoms: _79  and  _81
REMARK   35  A    between atoms: _81  and  _82
REMARK   36  A    between atoms: _81  and  _84
REMARK   37  A    between atoms: _84  and  _85
REMARK   38  A    between atoms: _90  and  _92
REMARK   39  A    between atoms: _92  and  _93
REMARK   40  A    between atoms: _92  and  _95
REMARK   41  A    between atoms: _95  and  _96
REMARK   42  A    between atoms: _98  and  _100
REMARK   43  A    between atoms: _100  and  _101
REMARK   44  A    between atoms: _100  and  _103
REMARK   45  A    between atoms: _103  and  _104
REMARK   46  A    between atoms: _106  and  _108
REMARK   47  A    between atoms: _108  and  _109
REMARK   48  A    between atoms: _108  and  _111
REMARK   49  A    between atoms: _111  and  _112
REMARK   50  A    between atoms: _115  and  _117
REMARK   51  A    between atoms: _117  and  _118
REMARK   52  A    between atoms: _121  and  _123
REMARK   53  A    between atoms: _123  and  _124
REMARK   54  A    between atoms: _123  and  _126
REMARK   55  A    between atoms: _126  and  _127
REMARK   56  A    between atoms: _130  and  _132
REMARK   57  A    between atoms: _132  and  _133
REMARK   58  A    between atoms: _132  and  _135
REMARK   59  A    between atoms: _135  and  _136
REMARK   60  A    between atoms: _139  and  _141
REMARK   61  A    between atoms: _141  and  _142
REMARK   62  A    between atoms: _141  and  _144
REMARK   63  A    between atoms: _147  and  _149
REMARK   64  A    between atoms: _149  and  _150
REMARK   65  A    between atoms: _149  and  _152
REMARK   66  A    between atoms: _152  and  _153
REMARK   67  A    between atoms: _156  and  _158
REMARK   68  A    between atoms: _158  and  _159
REMARK   69  A    between atoms: _158  and  _161
REMARK   70  A    between atoms: _161  and  _162
REMARK   71  A    between atoms: _165  and  _167
REMARK   72  A    between atoms: _167  and  _168
REMARK   73  A    between atoms: _170  and  _172
REMARK   74  A    between atoms: _172  and  _173
REMARK   75  A    between atoms: _172  and  _175
REMARK   76  A    between atoms: _175  and  _176
REMARK   77  A    between atoms: _179  and  _181
REMARK   78  A    between atoms: _181  and  _182
REMARK   79  A    between atoms: _184  and  _186
REMARK   80  A    between atoms: _186  and  _187
REMARK   81  A    between atoms: _186  and  _189
REMARK   82  A    between atoms: _189  and  _190
REMARK   83  A    between atoms: _190  and  _191
REMARK   84  A    between atoms: _193  and  _195
REMARK   85  A    between atoms: _195  and  _196
REMARK   86  A    between atoms: _195  and  _198
REMARK   87  A    between atoms: _198  and  _199
REMARK   88  A    between atoms: _202  and  _204
REMARK   89  A    between atoms: _204  and  _205
REMARK   90  A    between atoms: _204  and  _207
REMARK   91  A    between atoms: _207  and  _208
REMARK   92  A    between atoms: _211  and  _213
REMARK   93  A    between atoms: _213  and  _214
REMARK   94  A    between atoms: _213  and  _216
REMARK   95  A    between atoms: _216  and  _217
REMARK   96  A    between atoms: _220  and  _222
REMARK   97  A    between atoms: _222  and  _223
REMARK   98  A    between atoms: _222  and  _225
REMARK   99  A    between atoms: _225  and  _226
REMARK  100  A    between atoms: _231  and  _233
REMARK  101  A    between atoms: _233  and  _234
REMARK  102  A    between atoms: _233  and  _236
REMARK  103  A    between atoms: _236  and  _237
REMARK  104  A    between atoms: _240  and  _242
REMARK  105  A    between atoms: _242  and  _243
REMARK  106  A    between atoms: _245  and  _247
REMARK  107  A    between atoms: _247  and  _248
REMARK  108  A    between atoms: _247  and  _250
REMARK  109  A    between atoms: _250  and  _251
REMARK  110  A    between atoms: _254  and  _256
REMARK  111  A    between atoms: _256  and  _257
REMARK  112  A    between atoms: _260  and  _262
REMARK  113  A    between atoms: _262  and  _263
REMARK  114  A    between atoms: _262  and  _265
REMARK  115  A    between atoms: _265  and  _266
REMARK  116  A    between atoms: _269  and  _271
REMARK  117  A    between atoms: _271  and  _272
REMARK  118  A    between atoms: _271  and  _274
REMARK  119  A    between atoms: _274  and  _275
REMARK  120  A    between atoms: _281  and  _283
REMARK  121  A    between atoms: _283  and  _284
REMARK  122  A    between atoms: _286  and  _288
REMARK  123  A    between atoms: _288  and  _289
REMARK  124  A    between atoms: _288  and  _291
REMARK  125  A    between atoms: _294  and  _296
REMARK  126  A    between atoms: _296  and  _297
REMARK  127  A    between atoms: _299  and  _301
REMARK  128  A    between atoms: _301  and  _302
REMARK  129  A    between atoms: _301  and  _304
REMARK  130  A    between atoms: _304  and  _305
REMARK  131  A    between atoms: _311  and  _313
REMARK  132  A    between atoms: _313  and  _314
REMARK  133  A    between atoms: _313  and  _316
REMARK  134  A    between atoms: _316  and  _317
REMARK  135  A    between atoms: _322  and  _323
REMARK  136  A    between atoms: _325  and  _327
REMARK  137  A    between atoms: _327  and  _328
REMARK  138  A    between atoms: _327  and  _330
REMARK  139  A    between atoms: _330  and  _331
REMARK  140  A    between atoms: _333  and  _335
REMARK  141  A    between atoms: _335  and  _336
REMARK  142  A    between atoms: _339  and  _341
REMARK  143  A    between atoms: _341  and  _342
REMARK  144  A    between atoms: _341  and  _344
REMARK  145  A    between atoms: _344  and  _345
REMARK  146  A    between atoms: _350  and  _351
REMARK  147  A    between atoms: _353  and  _355
REMARK  148  A    between atoms: _355  and  _356
REMARK  149  A    between atoms: _355  and  _358
REMARK  150  A    between atoms: _361  and  _363
REMARK  151  A    between atoms: _363  and  _364
REMARK  152  A    between atoms: _363  and  _366
REMARK  153  A    between atoms: _366  and  _367
REMARK  154  A    between atoms: _370  and  _372
REMARK  155  A    between atoms: _372  and  _373
REMARK  156  A    between atoms: _372  and  _375
REMARK  157  A    between atoms: _378  and  _380
REMARK  158  A    between atoms: _380  and  _381
REMARK  159  A    between atoms: _380  and  _383
REMARK  160  A    between atoms: _383  and  _384
REMARK  161  A    between atoms: _387  and  _389
REMARK  162  A    between atoms: _389  and  _390
REMARK  163  A    between atoms: _389  and  _392
REMARK  164  A    between atoms: _392  and  _393
REMARK  165  A    between atoms: _396  and  _398
REMARK  166  A    between atoms: _398  and  _399
REMARK  167  A    between atoms: _398  and  _401
REMARK  168  A    between atoms: _401  and  _402
REMARK  169  A    between atoms: _402  and  _403
REMARK  170  A    between atoms: _403  and  _404
REMARK  171  A    between atoms: _404  and  _405
REMARK  172  A    between atoms: _409  and  _411
REMARK  173  A    between atoms: _411  and  _412
REMARK  174  A    between atoms: _411  and  _414
REMARK  175  A    between atoms: _414  and  _415
REMARK  176  A    between atoms: _425  and  _427
REMARK  177  A    between atoms: _427  and  _428
REMARK  178  A    between atoms: _427  and  _430
REMARK  179  A    between atoms: _430  and  _431
REMARK  180  A    between atoms: _431  and  _432
REMARK  181  A    between atoms: _435  and  _437
REMARK  182  A    between atoms: _437  and  _438
REMARK  183  A    between atoms: _437  and  _440
REMARK  184  A    between atoms: _440  and  _441
REMARK  185  A    between atoms: _443  and  _445
REMARK  186  A    between atoms: _445  and  _446
REMARK  187  A    between atoms: _445  and  _448
REMARK  188  A    between atoms: _448  and  _449
REMARK  189  A    between atoms: _455  and  _457
REMARK  190  A    between atoms: _457  and  _458
REMARK  191  A    between atoms: _457  and  _460
REMARK  192  A    between atoms: _460  and  _461
REMARK  193  A    between atoms: _464  and  _466
REMARK  194  A    between atoms: _466  and  _467
REMARK  195  A    between atoms: _466  and  _469
REMARK  196  A    between atoms: _472  and  _474
REMARK  197  A    between atoms: _474  and  _475
REMARK  198  A    between atoms: _477  and  _479
REMARK  199  A    between atoms: _479  and  _480
REMARK  200  A    between atoms: _479  and  _482
REMARK  201  A    between atoms: _482  and  _483
REMARK  202  A    between atoms: _486  and  _488
REMARK  203  A    between atoms: _488  and  _489
REMARK  204  A    between atoms: _488  and  _491
REMARK  205  A    between atoms: _491  and  _492
REMARK  206  A    between atoms: _492  and  _493
REMARK  207  A    between atoms: _493  and  _494
REMARK  208  A    between atoms: _494  and  _495
REMARK  209  A    between atoms: _499  and  _501
REMARK  210  A    between atoms: _501  and  _502
REMARK  211  A    between atoms: _501  and  _504
REMARK  212  A    between atoms: _507  and  _509
REMARK  213  A    between atoms: _509  and  _510
REMARK  214  A    between atoms: _509  and  _512
REMARK  215  A    between atoms: _512  and  _513
REMARK                            x       y       z     vdW  Elec       q    Type
REMARK                         _______ _______ _______ _____ _____    ______ ____
ROOT
ATOM      1  CA  ASN A   5      -1.311   8.454  20.995  0.00  0.00    +0.158 C 
ENDROOT
BRANCH   1   4
ATOM      2  C   SER A   4      -2.494   7.206  19.274  0.00  0.00    +0.243 C 
ATOM      3  O   SER A   4      -2.727   6.283  20.072  0.00  0.00    -0.273 OA
ATOM      4  N   ASN A   5      -1.767   8.264  19.611  0.00  0.00    -0.297 N 
ATOM      5  H   ASN A   5      -1.517   8.967  18.887  0.00  0.00    +0.150 HD
BRANCH   2   6
ATOM      6  CA  SER A   4      -3.073   7.191  17.857  0.00  0.00    +0.178 C 
BRANCH   6   9
ATOM      7  C   ILE A   3      -4.584   9.134  18.027  0.00  0.00    +0.241 C 
ATOM      8  O   ILE A   3      -5.227   8.630  18.965  0.00  0.00    -0.273 OA
ATOM      9  N   SER A   4      -3.562   8.520  17.436  0.00  0.00    -0.295 N 
ATOM     10  H   SER A   4      -3.087   8.997  16.643  0.00  0.00    +0.150 HD
BRANCH   7  11
ATOM     11  CA  ILE A   3      -4.898  10.559  17.510  0.00  0.00    +0.149 C 
BRANCH  11  14
ATOM     12  C   LEU A   2      -2.805  11.614  18.235  0.00  0.00    +0.241 C 
ATOM     13  O   LEU A   2      -3.006  11.328  19.414  0.00  0.00    -0.273 OA
ATOM     14  N   ILE A   3      -3.647  11.292  17.259  0.00  0.00    -0.297 N 
ATOM     15  H   ILE A   3      -3.414  11.568  16.284  0.00  0.00    +0.150 HD
BRANCH  12  16
ATOM     16  CA  LEU A   2      -1.528  12.359  17.819  0.00  0.00    +0.149 C 
BRANCH  16  19
ATOM     17  C   GLU A   1      -0.397  10.625  16.561  0.00  0.00    +0.238 C 
ATOM     18  O   GLU A   1      -0.215   9.965  17.586  0.00  0.00    -0.274 OA
ATOM     19  N   LEU A   2      -0.979  11.821  16.574  0.00  0.00    -0.297 N 
ATOM     20  H   LEU A   2      -1.044  12.375  15.697  0.00  0.00    +0.150 HD
BRANCH  17  21
ATOM     21  CA  GLU A   1       0.075  10.123  15.213  0.00  0.00    +0.145 C 
BRANCH  21  22
ATOM     22  N   GLU A   1      -0.853  10.465  14.113  0.00  0.00    -0.238 NA
ATOM     23  H   GLU A   1      -0.581  11.213  13.444  0.00  0.00    +0.142 HD
ENDBRANCH  21  22
BRANCH  21  24
ATOM     24  CB  GLU A   1       1.489  10.664  14.936  0.00  0.00    +0.038 C 
BRANCH  24  25
ATOM     25  CG  GLU A   1       2.151  10.134  13.663  0.00  0.00    +0.116 C 
BRANCH  25  26
ATOM     26  CD  GLU A   1       2.201   8.602  13.571  0.00  0.00    +0.365 C 
ATOM     27  OE2 GLU A   1       2.432   7.948  14.616  0.00  0.00    -0.246 OA
ATOM     28  OE1 GLU A   1       1.999   8.056  12.446  0.00  0.00    -0.246 OA
ENDBRANCH  25  26
ENDBRANCH  24  25
ENDBRANCH  21  24
ENDBRANCH  17  21
ENDBRANCH  16  19
BRANCH  16  29
ATOM     29  CB  LEU A   2      -1.768  13.871  17.696  0.00  0.00    +0.029 C 
BRANCH  29  30
ATOM     30  CG  LEU A   2      -0.493  14.629  17.300  0.00  0.00    +0.002 C 
ATOM     31  CD2 LEU A   2       0.708  14.397  18.240  0.00  0.00    +0.000 C 
ATOM     32  CD1 LEU A   2      -0.801  16.107  17.108  0.00  0.00    +0.000 C 
ENDBRANCH  29  30
ENDBRANCH  16  29
ENDBRANCH  12  16
ENDBRANCH  11  14
BRANCH  11  33
ATOM     33  CB  ILE A   3      -5.784  10.529  16.239  0.00  0.00    +0.027 C 
ATOM     34  CG2 ILE A   3      -6.933   9.526  16.390  0.00  0.00    +0.002 C 
BRANCH  33  35
ATOM     35  CG1 ILE A   3      -6.291  11.948  15.901  0.00  0.00    +0.002 C 
ATOM     36  CD1 ILE A   3      -7.327  12.004  14.787  0.00  0.00    +0.000 C 
ENDBRANCH  33  35
ENDBRANCH  11  33
ENDBRANCH   7  11
ENDBRANCH   6   9
BRANCH   6  37
ATOM     37  CB  SER A   4      -2.064   6.658  16.831  0.00  0.00    +0.166 C 
BRANCH  37  38
ATOM     38  OG  SER A   4      -1.265   5.646  17.382  0.00  0.00    -0.380 OA
ATOM     39  H   SER A   4      -0.626   5.323  16.699  0.00  0.00    +0.211 HD
ENDBRANCH  37  38
ENDBRANCH   6  37
ENDBRANCH   2   6
ENDBRANCH   1   4
BRANCH   1  40
ATOM     40  C   ASN A   5      -2.465   8.635  21.990  0.00  0.00    +0.241 C 
ATOM     41  O   ASN A   5      -2.412   8.145  23.116  0.00  0.00    -0.273 OA
ATOM     42  N   SER A   6      -3.502   9.348  21.584  0.00  0.00    -0.295 N 
ATOM     43  H   SER A   6      -3.478   9.799  20.647  0.00  0.00    +0.150 HD
BRANCH  42  44
ATOM     44  CA  SER A   6      -4.686   9.512  22.436  0.00  0.00    +0.178 C 
BRANCH  44  45
ATOM     45  C   SER A   6      -5.401   8.182  22.656  0.00  0.00    +0.243 C 
ATOM     46  O   SER A   6      -5.849   7.875  23.763  0.00  0.00    -0.273 OA
ATOM     47  N   SER A   7      -5.487   7.390  21.597  0.00  0.00    -0.295 N 
ATOM     48  H   SER A   7      -5.071   7.707  20.698  0.00  0.00    +0.150 HD
BRANCH  47  49
ATOM     49  CA  SER A   7      -6.144   6.091  21.650  0.00  0.00    +0.178 C 
BRANCH  49  50
ATOM     50  C   SER A   7      -5.426   5.144  22.622  0.00  0.00    +0.243 C 
ATOM     51  O   SER A   7      -6.068   4.472  23.444  0.00  0.00    -0.273 OA
ATOM     52  N   ASP A   8      -4.092   5.109  22.552  0.00  0.00    -0.296 N 
ATOM     53  H   ASP A   8      -3.613   5.662  21.813  0.00  0.00    +0.150 HD
BRANCH  52  54
ATOM     54  CA  ASP A   8      -3.286   4.321  23.478  0.00  0.00    +0.160 C 
BRANCH  54  55
ATOM     55  C   ASP A   8      -3.478   4.777  24.938  0.00  0.00    +0.241 C 
ATOM     56  O   ASP A   8      -3.587   3.943  25.851  0.00  0.00    -0.273 OA
ATOM     57  N   ALA A   9      -3.516   6.089  25.179  0.00  0.00    -0.297 N 
ATOM     58  H   ALA A   9      -3.375   6.767  24.403  0.00  0.00    +0.150 HD
BRANCH  57  59
ATOM     59  CA  ALA A   9      -3.758   6.571  26.544  0.00  0.00    +0.149 C 
ATOM     60  CB  ALA A   9      -3.460   8.069  26.657  0.00  0.00    +0.031 C 
BRANCH  59  61
ATOM     61  C   ALA A   9      -5.198   6.234  27.023  0.00  0.00    +0.241 C 
ATOM     62  O   ALA A   9      -5.431   5.925  28.198  0.00  0.00    -0.273 OA
ATOM     63  N   LEU A  10      -6.155   6.286  26.112  0.00  0.00    -0.298 N 
ATOM     64  H   LEU A  10      -5.939   6.633  25.156  0.00  0.00    +0.150 HD
BRANCH  63  65
ATOM     65  CA  LEU A  10      -7.516   5.859  26.440  0.00  0.00    +0.137 C 
BRANCH  65  66
ATOM     66  C   LEU A  10      -7.598   4.337  26.765  0.00  0.00    +0.227 C 
ATOM     67  O   LEU A  10      -8.232   3.955  27.745  0.00  0.00    -0.286 OA
ENDBRANCH  65  66
BRANCH  65  68
ATOM     68  CB  LEU A  10      -8.479   6.269  25.322  0.00  0.00    +0.028 C 
BRANCH  68  69
ATOM     69  CG  LEU A  10      -8.766   7.781  25.302  0.00  0.00    +0.002 C 
ATOM     70  CD2 LEU A  10      -9.721   8.189  26.403  0.00  0.00    +0.000 C 
ATOM     71  CD1 LEU A  10      -9.312   8.236  23.968  0.00  0.00    +0.000 C 
ENDBRANCH  68  69
ENDBRANCH  65  68
ENDBRANCH  63  65
ENDBRANCH  59  61
ENDBRANCH  57  59
ENDBRANCH  54  55
BRANCH  54  72
ATOM     72  CB  ASP A   8      -1.789   4.400  23.107  0.00  0.00    +0.143 C 
BRANCH  72  73
ATOM     73  CG  ASP A   8      -1.472   3.802  21.739  0.00  0.00    +0.367 C 
ATOM     74  OD2 ASP A   8      -0.394   4.115  21.211  0.00  0.00    -0.246 OA
ATOM     75  OD1 ASP A   8      -2.275   3.017  21.178  0.00  0.00    -0.246 OA
ENDBRANCH  72  73
ENDBRANCH  54  72
ENDBRANCH  52  54
ENDBRANCH  49  50
BRANCH  49  76
ATOM     76  CB  SER A   7      -6.230   5.535  20.218  0.00  0.00    +0.166 C 
BRANCH  76  77
ATOM     77  OG  SER A   7      -6.599   4.174  20.178  0.00  0.00    -0.380 OA
ATOM     78  H   SER A   7      -5.929   3.637  20.671  0.00  0.00    +0.211 HD
ENDBRANCH  76  77
ENDBRANCH  49  76
ENDBRANCH  47  49
ENDBRANCH  44  45
BRANCH  44  79
ATOM     79  CB  SER A   6      -5.638  10.517  21.810  0.00  0.00    +0.166 C 
BRANCH  79  80
ATOM     80  OG  SER A   6      -5.070  11.806  21.900  0.00  0.00    -0.380 OA
ATOM     81  H   SER A   6      -4.921  12.034  22.852  0.00  0.00    +0.211 HD
ENDBRANCH  79  80
ENDBRANCH  44  79
ENDBRANCH  42  44
ENDBRANCH   1  40
BRANCH   1  82
ATOM     82  CB  ASN A   5      -0.321   9.633  21.079  0.00  0.00    +0.114 C 
BRANCH  82  83
ATOM     83  CG  ASN A   5       1.107   9.226  20.706  0.00  0.00    +0.222 C 
ATOM     84  OD1 ASN A   5       1.421   8.043  20.675  0.00  0.00    -0.275 OA
ATOM     85  ND2 ASN A   5       1.975  10.204  20.444  0.00  0.00    -0.329 N 
ATOM     86 HD21 ASN A   5       1.667  11.197  20.481  0.00  0.00    +0.145 HD
ATOM     87 HD22 ASN A   5       2.960   9.974  20.202  0.00  0.00    +0.145 HD
ENDBRANCH  82  83
ENDBRANCH   1  82
TORSDOF 39
REMARK  Name = ../refined-set-2016/4cwo/4cwo_pocket.pdb
REMARK  215 active torsions:
REMARK  status: ('A' for Active; 'I' for Inactive)
REMARK    1  A    between atoms: _1  and  _3
REMARK    2  A    between atoms: _3  and  _4
REMARK    3  A    between atoms: _3  and  _6
REMARK    4  A    between atoms: _6  and  _7
REMARK    5  A    between atoms: _13  and  _15
REMARK    6  A    between atoms: _15  and  _16
REMARK    7  A    between atoms: _15  and  _18
REMARK    8  A    between atoms: _18  and  _19
REMARK    9  A    between atoms: _22  and  _24
REMARK   10  A    between atoms: _24  and  _25
REMARK   11  A    between atoms: _24  and  _27
REMARK   12  A    between atoms: _27  and  _28
REMARK   13  A    between atoms: _34  and  _36
REMARK   14  A    between atoms: _36  and  _37
REMARK   15  A    between atoms: _36  and  _39
REMARK   16  A    between atoms: _39  and  _40
REMARK   17  A    between atoms: _43  and  _45
REMARK   18  A    between atoms: _45  and  _46
REMARK   19  A    between atoms: _45  and  _48
REMARK   20  A    between atoms: _48  and  _49
REMARK   21  A    between atoms: _49  and  _50
REMARK   22  A    between atoms: _53  and  _55
REMARK   23  A    between atoms: _55  and  _56
REMARK   24  A    between atoms: _55  and  _58
REMARK   25  A    between atoms: _58  and  _59
REMARK   26  A    between atoms: _62  and  _64
REMARK   27  A    between atoms: _64  and  _65
REMARK   28  A    between atoms: _64  and  _67
REMARK   29  A    between atoms: _67  and  _68
REMARK   30  A    between atoms: _71  and  _73
REMARK   31  A    between atoms: _73  and  _74
REMARK   32  A    between atoms: _73  and  _76
REMARK   33  A    between atoms: _76  and  _77
REMARK   34  A    between atoms: _79  and  _81
REMARK   35  A    between atoms: _81  and  _82
REMARK   36  A    between atoms: _81  and  _84
REMARK   37  A    between atoms: _84  and  _85
REMARK   38  A    between atoms: _90  and  _92
REMARK   39  A    between atoms: _92  and  _93
REMARK   40  A    between atoms: _92  and  _95
REMARK   41  A    between atoms: _95  and  _96
REMARK   42  A    between atoms: _98  and  _100
REMARK   43  A    between atoms: _100  and  _101
REMARK   44  A    between atoms: _100  and  _103
REMARK   45  A    between atoms: _103  and  _104
REMARK   46  A    between atoms: _106  and  _108
REMARK   47  A    between atoms: _108  and  _109
REMARK   48  A    between atoms: _108  and  _111
REMARK   49  A    between atoms: _111  and  _112
REMARK   50  A    between atoms: _115  and  _117
REMARK   51  A    between atoms: _117  and  _118
REMARK   52  A    between atoms: _121  and  _123
REMARK   53  A    between atoms: _123  and  _124
REMARK   54  A    between atoms: _123  and  _126
REMARK   55  A    between atoms: _126  and  _127
REMARK   56  A    between atoms: _130  and  _132
REMARK   57  A    between atoms: _132  and  _133
REMARK   58  A    between atoms: _132  and  _135
REMARK   59  A    between atoms: _135  and  _136
REMARK   60  A    between atoms: _139  and  _141
REMARK   61  A    between atoms: _141  and  _142
REMARK   62  A    between atoms: _141  and  _144
REMARK   63  A    between atoms: _147  and  _149
REMARK   64  A    between atoms: _149  and  _150
REMARK   65  A    between atoms: _149  and  _152
REMARK   66  A    between atoms: _152  and  _153
REMARK   67  A    between atoms: _156  and  _158
REMARK   68  A    between atoms: _158  and  _159
REMARK   69  A    between atoms: _158  and  _161
REMARK   70  A    between atoms: _161  and  _162
REMARK   71  A    between atoms: _165  and  _167
REMARK   72  A    between atoms: _167  and  _168
REMARK   73  A    between atoms: _170  and  _172
REMARK   74  A    between atoms: _172  and  _173
REMARK   75  A    between atoms: _172  and  _175
REMARK   76  A    between atoms: _175  and  _176
REMARK   77  A    between atoms: _179  and  _181
REMARK   78  A    between atoms: _181  and  _182
REMARK   79  A    between atoms: _184  and  _186
REMARK   80  A    between atoms: _186  and  _187
REMARK   81  A    between atoms: _186  and  _189
REMARK   82  A    between atoms: _189  and  _190
REMARK   83  A    between atoms: _190  and  _191
REMARK   84  A    between atoms: _193  and  _195
REMARK   85  A    between atoms: _195  and  _196
REMARK   86  A    between atoms: _195  and  _198
REMARK   87  A    between atoms: _198  and  _199
REMARK   88  A    between atoms: _202  and  _204
REMARK   89  A    between atoms: _204  and  _205
REMARK   90  A    between atoms: _204  and  _207
REMARK   91  A    between atoms: _207  and  _208
REMARK   92  A    between atoms: _211  and  _213
REMARK   93  A    between atoms: _213  and  _214
REMARK   94  A    between atoms: _213  and  _216
REMARK   95  A    between atoms: _216  and  _217
REMARK   96  A    between atoms: _220  and  _222
REMARK   97  A    between atoms: _222  and  _223
REMARK   98  A    between atoms: _222  and  _225
REMARK   99  A    between atoms: _225  and  _226
REMARK  100  A    between atoms: _231  and  _233
REMARK  101  A    between atoms: _233  and  _234
REMARK  102  A    between atoms: _233  and  _236
REMARK  103  A    between atoms: _236  and  _237
REMARK  104  A    between atoms: _240  and  _242
REMARK  105  A    between atoms: _242  and  _243
REMARK  106  A    between atoms: _245  and  _247
REMARK  107  A    between atoms: _247  and  _248
REMARK  108  A    between atoms: _247  and  _250
REMARK  109  A    between atoms: _250  and  _251
REMARK  110  A    between atoms: _254  and  _256
REMARK  111  A    between atoms: _256  and  _257
REMARK  112  A    between atoms: _260  and  _262
REMARK  113  A    between atoms: _262  and  _263
REMARK  114  A    between atoms: _262  and  _265
REMARK  115  A    between atoms: _265  and  _266
REMARK  116  A    between atoms: _269  and  _271
REMARK  117  A    between atoms: _271  and  _272
REMARK  118  A    between atoms: _271  and  _274
REMARK  119  A    between atoms: _274  and  _275
REMARK  120  A    between atoms: _281  and  _283
REMARK  121  A    between atoms: _283  and  _284
REMARK  122  A    between atoms: _286  and  _288
REMARK  123  A    between atoms: _288  and  _289
REMARK  124  A    between atoms: _288  and  _291
REMARK  125  A    between atoms: _294  and  _296
REMARK  126  A    between atoms: _296  and  _297
REMARK  127  A    between atoms: _299  and  _301
REMARK  128  A    between atoms: _301  and  _302
REMARK  129  A    between atoms: _301  and  _304
REMARK  130  A    between atoms: _304  and  _305
REMARK  131  A    between atoms: _311  and  _313
REMARK  132  A    between atoms: _313  and  _314
REMARK  133  A    between atoms: _313  and  _316
REMARK  134  A    between atoms: _316  and  _317
REMARK  135  A    between atoms: _322  and  _323
REMARK  136  A    between atoms: _325  and  _327
REMARK  137  A    between atoms: _327  and  _328
REMARK  138  A    between atoms: _327  and  _330
REMARK  139  A    between atoms: _330  and  _331
REMARK  140  A    between atoms: _333  and  _335
REMARK  141  A    between atoms: _335  and  _336
REMARK  142  A    between atoms: _339  and  _341
REMARK  143  A    between atoms: _341  and  _342
REMARK  144  A    between atoms: _341  and  _344
REMARK  145  A    between atoms: _344  and  _345
REMARK  146  A    between atoms: _350  and  _351
REMARK  147  A    between atoms: _353  and  _355
REMARK  148  A    between atoms: _355  and  _356
REMARK  149  A    between atoms: _355  and  _358
REMARK  150  A    between atoms: _361  and  _363
REMARK  151  A    between atoms: _363  and  _364
REMARK  152  A    between atoms: _363  and  _366
REMARK  153  A    between atoms: _366  and  _367
REMARK  154  A    between atoms: _370  and  _372
REMARK  155  A    between atoms: _372  and  _373
REMARK  156  A    between atoms: _372  and  _375
REMARK  157  A    between atoms: _378  and  _380
REMARK  158  A    between atoms: _380  and  _381
REMARK  159  A    between atoms: _380  and  _383
REMARK  160  A    between atoms: _383  and  _384
REMARK  161  A    between atoms: _387  and  _389
REMARK  162  A    between atoms: _389  and  _390
REMARK  163  A    between atoms: _389  and  _392
REMARK  164  A    between atoms: _392  and  _393
REMARK  165  A    between atoms: _396  and  _398
REMARK  166  A    between atoms: _398  and  _399
REMARK  167  A    between atoms: _398  and  _401
REMARK  168  A    between atoms: _401  and  _402
REMARK  169  A    between atoms: _402  and  _403
REMARK  170  A    between atoms: _403  and  _404
REMARK  171  A    between atoms: _404  and  _405
REMARK  172  A    between atoms: _409  and  _411
REMARK  173  A    between atoms: _411  and  _412
REMARK  174  A    between atoms: _411  and  _414
REMARK  175  A    between atoms: _414  and  _415
REMARK  176  A    between atoms: _425  and  _427
REMARK  177  A    between atoms: _427  and  _428
REMARK  178  A    between atoms: _427  and  _430
REMARK  179  A    between atoms: _430  and  _431
REMARK  180  A    between atoms: _431  and  _432
REMARK  181  A    between atoms: _435  and  _437
REMARK  182  A    between atoms: _437  and  _438
REMARK  183  A    between atoms: _437  and  _440
REMARK  184  A    between atoms: _440  and  _441
REMARK  185  A    between atoms: _443  and  _445
REMARK  186  A    between atoms: _445  and  _446
REMARK  187  A    between atoms: _445  and  _448
REMARK  188  A    between atoms: _448  and  _449
REMARK  189  A    between atoms: _455  and  _457
REMARK  190  A    between atoms: _457  and  _458
REMARK  191  A    between atoms: _457  and  _460
REMARK  192  A    between atoms: _460  and  _461
REMARK  193  A    between atoms: _464  and  _466
REMARK  194  A    between atoms: _466  and  _467
REMARK  195  A    between atoms: _466  and  _469
REMARK  196  A    between atoms: _472  and  _474
REMARK  197  A    between atoms: _474  and  _475
REMARK  198  A    between atoms: _477  and  _479
REMARK  199  A    between atoms: _479  and  _480
REMARK  200  A    between atoms: _479  and  _482
REMARK  201  A    between atoms: _482  and  _483
REMARK  202  A    between atoms: _486  and  _488
REMARK  203  A    between atoms: _488  and  _489
REMARK  204  A    between atoms: _488  and  _491
REMARK  205  A    between atoms: _491  and  _492
REMARK  206  A    between atoms: _492  and  _493
REMARK  207  A    between atoms: _493  and  _494
REMARK  208  A    between atoms: _494  and  _495
REMARK  209  A    between atoms: _499  and  _501
REMARK  210  A    between atoms: _501  and  _502
REMARK  211  A    between atoms: _501  and  _504
REMARK  212  A    between atoms: _507  and  _509
REMARK  213  A    between atoms: _509  and  _510
REMARK  214  A    between atoms: _509  and  _512
REMARK  215  A    between atoms: _512  and  _513
REMARK                            x       y       z     vdW  Elec       q    Type
REMARK                         _______ _______ _______ _____ _____    ______ ____
ROOT
ATOM      1  CA  THR A   4      -9.686  11.718  28.550  0.00  0.00    +0.176 C 
ENDROOT
BRANCH   1   4
ATOM      2  C   ASP A   3      -8.651  13.008  26.757  0.00  0.00    +0.241 C 
ATOM      3  O   ASP A   3      -8.030  13.704  27.556  0.00  0.00    -0.273 OA
ATOM      4  N   THR A   4      -9.512  12.067  27.140  0.00  0.00    -0.295 N 
ATOM      5  H   THR A   4     -10.074  11.569  26.420  0.00  0.00    +0.150 HD
BRANCH   2   6
ATOM      6  CA  ASP A   3      -8.439  13.175  25.260  0.00  0.00    +0.160 C 
BRANCH   6   8
ATOM      7  C   VAL A   2      -8.459  15.236  23.952  0.00  0.00    +0.241 C 
ATOM      8  N   ASP A   3      -7.917  14.510  24.932  0.00  0.00    -0.297 N 
ATOM      9  H   ASP A   3      -7.115  14.894  25.471  0.00  0.00    +0.150 HD
ATOM     10  O   VAL A   2      -9.277  14.778  23.177  0.00  0.00    -0.273 OA
BRANCH   7  11
ATOM     11  CA  VAL A   2      -8.046  16.705  23.819  0.00  0.00    +0.148 C 
BRANCH  11  14
ATOM     12  C   ILE A   1      -6.511  17.298  22.006  0.00  0.00    +0.238 C 
ATOM     13  O   ILE A   1      -5.544  17.408  22.762  0.00  0.00    -0.274 OA
ATOM     14  N   VAL A   2      -7.734  16.960  22.419  0.00  0.00    -0.297 N 
ATOM     15  H   VAL A   2      -8.494  16.875  21.714  0.00  0.00    +0.150 HD
BRANCH  12  16
ATOM     16  CA  ILE A   1      -6.355  17.585  20.521  0.00  0.00    +0.145 C 
BRANCH  16  17
ATOM     17  N   ILE A   1      -5.825  18.957  20.365  0.00  0.00    -0.238 NA
ATOM     18  H   ILE A   1      -4.838  19.148  20.631  0.00  0.00    +0.142 HD
ENDBRANCH  16  17
BRANCH  16  19
ATOM     19  CB  ILE A   1      -5.471  16.508  19.847  0.00  0.00    +0.025 C 
ATOM     20  CG2 ILE A   1      -6.103  15.124  19.956  0.00  0.00    +0.002 C 
BRANCH  19  21
ATOM     21  CG1 ILE A   1      -5.324  16.785  18.357  0.00  0.00    +0.002 C 
ATOM     22  CD1 ILE A   1      -4.087  17.564  17.993  0.00  0.00    +0.000 C 
ENDBRANCH  19  21
ENDBRANCH  16  19
ENDBRANCH  12  16
ENDBRANCH  11  14
BRANCH  11  23
ATOM     23  CB  VAL A   2      -9.232  17.579  24.324  0.00  0.00    +0.027 C 
ATOM     24  CG2 VAL A   2      -9.413  17.429  25.823  0.00  0.00    +0.002 C 
ATOM     25  CG1 VAL A   2      -9.024  19.046  24.012  0.00  0.00    +0.002 C 
ENDBRANCH  11  23
ENDBRANCH   7  11
ENDBRANCH   6   8
BRANCH   6  26
ATOM     26  CB  ASP A   3      -7.551  12.039  24.681  0.00  0.00    +0.143 C 
BRANCH  26  27
ATOM     27  CG  ASP A   3      -6.144  11.992  25.292  0.00  0.00    +0.367 C 
ATOM     28  OD2 ASP A   3      -6.007  11.691  26.504  0.00  0.00    -0.246 OA
ATOM     29  OD1 ASP A   3      -5.157  12.212  24.553  0.00  0.00    -0.246 OA
ENDBRANCH  26  27
ENDBRANCH   6  26
ENDBRANCH   2   6
ENDBRANCH   1   4
BRANCH   1  30
ATOM     30  C   THR A   4      -8.927  10.439  28.890  0.00  0.00    +0.243 C 
ATOM     31  O   THR A   4      -9.395   9.581  29.659  0.00  0.00    -0.273 OA
ATOM     32  N   GLY A   5      -7.726  10.321  28.338  0.00  0.00    -0.295 N 
ATOM     33  H   GLY A   5      -7.382  11.067  27.700  0.00  0.00    +0.150 HD
BRANCH  32  34
ATOM     34  CA  GLY A   5      -6.879   9.165  28.609  0.00  0.00    +0.176 C 
BRANCH  34  35
ATOM     35  C   GLY A   5      -6.302   9.170  30.006  0.00  0.00    +0.243 C 
ATOM     36  O   GLY A   5      -6.757   9.913  30.896  0.00  0.00    -0.273 OA
ATOM     37  N   ILE A   6      -5.280   8.352  30.208  0.00  0.00    -0.297 N 
ATOM     38  H   ILE A   6      -4.869   7.839  29.402  0.00  0.00    +0.150 HD
BRANCH  37  39
ATOM     39  CA  ILE A   6      -4.719   8.158  31.548  0.00  0.00    +0.149 C 
BRANCH  39  40
ATOM     40  C   ILE A   6      -3.958   9.377  32.103  0.00  0.00    +0.241 C 
ATOM     41  O   ILE A   6      -3.864   9.557  33.324  0.00  0.00    -0.273 OA
ATOM     42  N   GLY A   7      -3.407  10.194  31.210  0.00  0.00    -0.295 N 
ATOM     43  H   GLY A   7      -3.514   9.986  30.197  0.00  0.00    +0.150 HD
BRANCH  42  44
ATOM     44  CA  GLY A   7      -2.657  11.374  31.620  0.00  0.00    +0.176 C 
BRANCH  44  45
ATOM     45  C   GLY A   7      -1.200  11.076  31.883  0.00  0.00    +0.243 C 
ATOM     46  N   MET A   8      -0.433  12.112  32.199  0.00  0.00    -0.298 N 
ATOM     47  H   MET A   8      -0.853  13.061  32.273  0.00  0.00    +0.150 HD
ATOM     48  O   GLY A   7      -0.765   9.927  31.800  0.00  0.00    -0.273 OA
BRANCH  46  49
ATOM     49  CA  MET A   8       0.999  11.930  32.444  0.00  0.00    +0.138 C 
BRANCH  49  50
ATOM     50  C   MET A   8       1.436  12.561  33.756  0.00  0.00    +0.227 C 
ATOM     51  O   MET A   8       0.891  13.593  34.168  0.00  0.00    -0.286 OA
ENDBRANCH  49  50
BRANCH  49  52
ATOM     52  CB  MET A   8       1.809  12.451  31.258  0.00  0.00    +0.039 C 
BRANCH  52  53
ATOM     53  CG  MET A   8       1.640  11.591  30.010  0.00  0.00    +0.060 C 
BRANCH  53  54
ATOM     54  SD  MET A   8       2.300  12.363  28.540  0.00  0.00    -0.139 S 
ATOM     55  CE  MET A   8       1.074  13.637  28.199  0.00  0.00    +0.069 C 
ENDBRANCH  53  54
ENDBRANCH  52  53
ENDBRANCH  49  52
ENDBRANCH  46  49
ENDBRANCH  44  45
ENDBRANCH  42  44
ENDBRANCH  39  40
BRANCH  39  56
ATOM     56  CB  ILE A   6      -3.812   6.913  31.600  0.00  0.00    +0.027 C 
ATOM     57  CG2 ILE A   6      -2.542   7.147  30.783  0.00  0.00    +0.002 C 
BRANCH  56  58
ATOM     58  CG1 ILE A   6      -3.516   6.528  33.057  0.00  0.00    +0.002 C 
ATOM     59  CD1 ILE A   6      -2.977   5.121  33.251  0.00  0.00    +0.000 C 
ENDBRANCH  56  58
ENDBRANCH  39  56
ENDBRANCH  37  39
ENDBRANCH  34  35
ENDBRANCH  32  34
ENDBRANCH   1  30
BRANCH   1  60
ATOM     60  CB  THR A   4     -11.179  11.623  28.921  0.00  0.00    +0.137 C 
ATOM     61  CG2 THR A   4     -11.830  13.040  28.917  0.00  0.00    +0.034 C 
BRANCH  60  62
ATOM     62  OG1 THR A   4     -11.859  10.818  27.944  0.00  0.00    -0.382 OA
ATOM     63  HG1 THR A   4     -12.818  10.755  28.180  0.00  0.00    +0.210 HD
ENDBRANCH  60  62
ENDBRANCH   1  60
TORSDOF 28
REMARK  Name = ../refined-set-2016/4cwo/4cwo_pocket.pdb
REMARK  215 active torsions:
REMARK  status: ('A' for Active; 'I' for Inactive)
REMARK    1  A    between atoms: _1  and  _3
REMARK    2  A    between atoms: _3  and  _4
REMARK    3  A    between atoms: _3  and  _6
REMARK    4  A    between atoms: _6  and  _7
REMARK    5  A    between atoms: _13  and  _15
REMARK    6  A    between atoms: _15  and  _16
REMARK    7  A    between atoms: _15  and  _18
REMARK    8  A    between atoms: _18  and  _19
REMARK    9  A    between atoms: _22  and  _24
REMARK   10  A    between atoms: _24  and  _25
REMARK   11  A    between atoms: _24  and  _27
REMARK   12  A    between atoms: _27  and  _28
REMARK   13  A    between atoms: _34  and  _36
REMARK   14  A    between atoms: _36  and  _37
REMARK   15  A    between atoms: _36  and  _39
REMARK   16  A    between atoms: _39  and  _40
REMARK   17  A    between atoms: _43  and  _45
REMARK   18  A    between atoms: _45  and  _46
REMARK   19  A    between atoms: _45  and  _48
REMARK   20  A    between atoms: _48  and  _49
REMARK   21  A    between atoms: _49  and  _50
REMARK   22  A    between atoms: _53  and  _55
REMARK   23  A    between atoms: _55  and  _56
REMARK   24  A    between atoms: _55  and  _58
REMARK   25  A    between atoms: _58  and  _59
REMARK   26  A    between atoms: _62  and  _64
REMARK   27  A    between atoms: _64  and  _65
REMARK   28  A    between atoms: _64  and  _67
REMARK   29  A    between atoms: _67  and  _68
REMARK   30  A    between atoms: _71  and  _73
REMARK   31  A    between atoms: _73  and  _74
REMARK   32  A    between atoms: _73  and  _76
REMARK   33  A    between atoms: _76  and  _77
REMARK   34  A    between atoms: _79  and  _81
REMARK   35  A    between atoms: _81  and  _82
REMARK   36  A    between atoms: _81  and  _84
REMARK   37  A    between atoms: _84  and  _85
REMARK   38  A    between atoms: _90  and  _92
REMARK   39  A    between atoms: _92  and  _93
REMARK   40  A    between atoms: _92  and  _95
REMARK   41  A    between atoms: _95  and  _96
REMARK   42  A    between atoms: _98  and  _100
REMARK   43  A    between atoms: _100  and  _101
REMARK   44  A    between atoms: _100  and  _103
REMARK   45  A    between atoms: _103  and  _104
REMARK   46  A    between atoms: _106  and  _108
REMARK   47  A    between atoms: _108  and  _109
REMARK   48  A    between atoms: _108  and  _111
REMARK   49  A    between atoms: _111  and  _112
REMARK   50  A    between atoms: _115  and  _117
REMARK   51  A    between atoms: _117  and  _118
REMARK   52  A    between atoms: _121  and  _123
REMARK   53  A    between atoms: _123  and  _124
REMARK   54  A    between atoms: _123  and  _126
REMARK   55  A    between atoms: _126  and  _127
REMARK   56  A    between atoms: _130  and  _132
REMARK   57  A    between atoms: _132  and  _133
REMARK   58  A    between atoms: _132  and  _135
REMARK   59  A    between atoms: _135  and  _136
REMARK   60  A    between atoms: _139  and  _141
REMARK   61  A    between atoms: _141  and  _142
REMARK   62  A    between atoms: _141  and  _144
REMARK   63  A    between atoms: _147  and  _149
REMARK   64  A    between atoms: _149  and  _150
REMARK   65  A    between atoms: _149  and  _152
REMARK   66  A    between atoms: _152  and  _153
REMARK   67  A    between atoms: _156  and  _158
REMARK   68  A    between atoms: _158  and  _159
REMARK   69  A    between atoms: _158  and  _161
REMARK   70  A    between atoms: _161  and  _162
REMARK   71  A    between atoms: _165  and  _167
REMARK   72  A    between atoms: _167  and  _168
REMARK   73  A    between atoms: _170  and  _172
REMARK   74  A    between atoms: _172  and  _173
REMARK   75  A    between atoms: _172  and  _175
REMARK   76  A    between atoms: _175  and  _176
REMARK   77  A    between atoms: _179  and  _181
REMARK   78  A    between atoms: _181  and  _182
REMARK   79  A    between atoms: _184  and  _186
REMARK   80  A    between atoms: _186  and  _187
REMARK   81  A    between atoms: _186  and  _189
REMARK   82  A    between atoms: _189  and  _190
REMARK   83  A    between atoms: _190  and  _191
REMARK   84  A    between atoms: _193  and  _195
REMARK   85  A    between atoms: _195  and  _196
REMARK   86  A    between atoms: _195  and  _198
REMARK   87  A    between atoms: _198  and  _199
REMARK   88  A    between atoms: _202  and  _204
REMARK   89  A    between atoms: _204  and  _205
REMARK   90  A    between atoms: _204  and  _207
REMARK   91  A    between atoms: _207  and  _208
REMARK   92  A    between atoms: _211  and  _213
REMARK   93  A    between atoms: _213  and  _214
REMARK   94  A    between atoms: _213  and  _216
REMARK   95  A    between atoms: _216  and  _217
REMARK   96  A    between atoms: _220  and  _222
REMARK   97  A    between atoms: _222  and  _223
REMARK   98  A    between atoms: _222  and  _225
REMARK   99  A    between atoms: _225  and  _226
REMARK  100  A    between atoms: _231  and  _233
REMARK  101  A    between atoms: _233  and  _234
REMARK  102  A    between atoms: _233  and  _236
REMARK  103  A    between atoms: _236  and  _237
REMARK  104  A    between atoms: _240  and  _242
REMARK  105  A    between atoms: _242  and  _243
REMARK  106  A    between atoms: _245  and  _247
REMARK  107  A    between atoms: _247  and  _248
REMARK  108  A    between atoms: _247  and  _250
REMARK  109  A    between atoms: _250  and  _251
REMARK  110  A    between atoms: _254  and  _256
REMARK  111  A    between atoms: _256  and  _257
REMARK  112  A    between atoms: _260  and  _262
REMARK  113  A    between atoms: _262  and  _263
REMARK  114  A    between atoms: _262  and  _265
REMARK  115  A    between atoms: _265  and  _266
REMARK  116  A    between atoms: _269  and  _271
REMARK  117  A    between atoms: _271  and  _272
REMARK  118  A    between atoms: _271  and  _274
REMARK  119  A    between atoms: _274  and  _275
REMARK  120  A    between atoms: _281  and  _283
REMARK  121  A    between atoms: _283  and  _284
REMARK  122  A    between atoms: _286  and  _288
REMARK  123  A    between atoms: _288  and  _289
REMARK  124  A    between atoms: _288  and  _291
REMARK  125  A    between atoms: _294  and  _296
REMARK  126  A    between atoms: _296  and  _297
REMARK  127  A    between atoms: _299  and  _301
REMARK  128  A    between atoms: _301  and  _302
REMARK  129  A    between atoms: _301  and  _304
REMARK  130  A    between atoms: _304  and  _305
REMARK  131  A    between atoms: _311  and  _313
REMARK  132  A    between atoms: _313  and  _314
REMARK  133  A    between atoms: _313  and  _316
REMARK  134  A    between atoms: _316  and  _317
REMARK  135  A    between atoms: _322  and  _323
REMARK  136  A    between atoms: _325  and  _327
REMARK  137  A    between atoms: _327  and  _328
REMARK  138  A    between atoms: _327  and  _330
REMARK  139  A    between atoms: _330  and  _331
REMARK  140  A    between atoms: _333  and  _335
REMARK  141  A    between atoms: _335  and  _336
REMARK  142  A    between atoms: _339  and  _341
REMARK  143  A    between atoms: _341  and  _342
REMARK  144  A    between atoms: _341  and  _344
REMARK  145  A    between atoms: _344  and  _345
REMARK  146  A    between atoms: _350  and  _351
REMARK  147  A    between atoms: _353  and  _355
REMARK  148  A    between atoms: _355  and  _356
REMARK  149  A    between atoms: _355  and  _358
REMARK  150  A    between atoms: _361  and  _363
REMARK  151  A    between atoms: _363  and  _364
REMARK  152  A    between atoms: _363  and  _366
REMARK  153  A    between atoms: _366  and  _367
REMARK  154  A    between atoms: _370  and  _372
REMARK  155  A    between atoms: _372  and  _373
REMARK  156  A    between atoms: _372  and  _375
REMARK  157  A    between atoms: _378  and  _380
REMARK  158  A    between atoms: _380  and  _381
REMARK  159  A    between atoms: _380  and  _383
REMARK  160  A    between atoms: _383  and  _384
REMARK  161  A    between atoms: _387  and  _389
REMARK  162  A    between atoms: _389  and  _390
REMARK  163  A    between atoms: _389  and  _392
REMARK  164  A    between atoms: _392  and  _393
REMARK  165  A    between atoms: _396  and  _398
REMARK  166  A    between atoms: _398  and  _399
REMARK  167  A    between atoms: _398  and  _401
REMARK  168  A    between atoms: _401  and  _402
REMARK  169  A    between atoms: _402  and  _403
REMARK  170  A    between atoms: _403  and  _404
REMARK  171  A    between atoms: _404  and  _405
REMARK  172  A    between atoms: _409  and  _411
REMARK  173  A    between atoms: _411  and  _412
REMARK  174  A    between atoms: _411  and  _414
REMARK  175  A    between atoms: _414  and  _415
REMARK  176  A    between atoms: _425  and  _427
REMARK  177  A    between atoms: _427  and  _428
REMARK  178  A    between atoms: _427  and  _430
REMARK  179  A    between atoms: _430  and  _431
REMARK  180  A    between atoms: _431  and  _432
REMARK  181  A    between atoms: _435  and  _437
REMARK  182  A    between atoms: _437  and  _438
REMARK  183  A    between atoms: _437  and  _440
REMARK  184  A    between atoms: _440  and  _441
REMARK  185  A    between atoms: _443  and  _445
REMARK  186  A    between atoms: _445  and  _446
REMARK  187  A    between atoms: _445  and  _448
REMARK  188  A    between atoms: _448  and  _449
REMARK  189  A    between atoms: _455  and  _457
REMARK  190  A    between atoms: _457  and  _458
REMARK  191  A    between atoms: _457  and  _460
REMARK  192  A    between atoms: _460  and  _461
REMARK  193  A    between atoms: _464  and  _466
REMARK  194  A    between atoms: _466  and  _467
REMARK  195  A    between atoms: _466  and  _469
REMARK  196  A    between atoms: _472  and  _474
REMARK  197  A    between atoms: _474  and  _475
REMARK  198  A    between atoms: _477  and  _479
REMARK  199  A    between atoms: _479  and  _480
REMARK  200  A    between atoms: _479  and  _482
REMARK  201  A    between atoms: _482  and  _483
REMARK  202  A    between atoms: _486  and  _488
REMARK  203  A    between atoms: _488  and  _489
REMARK  204  A    between atoms: _488  and  _491
REMARK  205  A    between atoms: _491  and  _492
REMARK  206  A    between atoms: _492  and  _493
REMARK  207  A    between atoms: _493  and  _494
REMARK  208  A    between atoms: _494  and  _495
REMARK  209  A    between atoms: _499  and  _501
REMARK  210  A    between atoms: _501  and  _502
REMARK  211  A    between atoms: _501  and  _504
REMARK  212  A    between atoms: _507  and  _509
REMARK  213  A    between atoms: _509  and  _510
REMARK  214  A    between atoms: _509  and  _512
REMARK  215  A    between atoms: _512  and  _513
REMARK                            x       y       z     vdW  Elec       q    Type
REMARK                         _______ _______ _______ _____ _____    ______ ____
ROOT
ATOM      1  CA  LEU A   2       7.152  14.656  31.228  0.00  0.00    +0.149 C 
ENDROOT
BRANCH   1   3
ATOM      2  C   ASP A   1       7.306  12.272  31.759  0.00  0.00    +0.239 C 
ATOM      3  N   LEU A   2       6.846  13.487  32.061  0.00  0.00    -0.297 N 
ATOM      4  H   LEU A   2       6.255  13.609  32.908  0.00  0.00    +0.150 HD
ATOM      5  O   ASP A   1       8.099  12.064  30.824  0.00  0.00    -0.274 OA
BRANCH   2   6
ATOM      6  CA  ASP A   1       6.760  11.119  32.624  0.00  0.00    +0.156 C 
BRANCH   6   7
ATOM      7  N   ASP A   1       6.939  11.396  34.074  0.00  0.00    -0.238 NA
ATOM      8  H   ASP A   1       6.105  11.416  34.695  0.00  0.00    +0.142 HD
ENDBRANCH   6   7
BRANCH   6   9
ATOM      9  CB  ASP A   1       5.270  10.948  32.241  0.00  0.00    +0.140 C 
BRANCH   9  10
ATOM     10  CG  ASP A   1       4.647   9.646  32.755  0.00  0.00    +0.367 C 
ATOM     11  OD2 ASP A   1       3.415   9.650  32.982  0.00  0.00    -0.246 OA
ATOM     12  OD1 ASP A   1       5.360   8.630  32.936  0.00  0.00    -0.246 OA
ENDBRANCH   9  10
ENDBRANCH   6   9
ENDBRANCH   2   6
ENDBRANCH   1   3
BRANCH   1  13
ATOM     13  C   LEU A   2       8.645  15.008  31.219  0.00  0.00    +0.241 C 
ATOM     14  N   ILE A   3       9.293  14.825  32.324  0.00  0.00    -0.298 N 
ATOM     15  H   ILE A   3       8.795  14.413  33.139  0.00  0.00    +0.150 HD
ATOM     16  O   LEU A   2       9.163  15.373  30.171  0.00  0.00    -0.273 OA
BRANCH  14  17
ATOM     17  CA  ILE A   3      10.704  15.180  32.461  0.00  0.00    +0.137 C 
BRANCH  17  18
ATOM     18  CB  ILE A   3      11.010  15.764  33.870  0.00  0.00    +0.026 C 
ATOM     19  CG2 ILE A   3      12.487  16.135  33.998  0.00  0.00    +0.002 C 
BRANCH  18  20
ATOM     20  CG1 ILE A   3      10.163  17.021  34.113  0.00  0.00    +0.002 C 
ATOM     21  CD1 ILE A   3      10.104  17.457  35.564  0.00  0.00    +0.000 C 
ENDBRANCH  18  20
ENDBRANCH  17  18
BRANCH  17  22
ATOM     22  C   ILE A   3      11.662  14.035  32.112  0.00  0.00    +0.227 C 
ATOM     23  O   ILE A   3      12.601  14.240  31.336  0.00  0.00    -0.286 OA
ENDBRANCH  17  22
ENDBRANCH  14  17
ENDBRANCH   1  13
BRANCH   1  24
ATOM     24  CB  LEU A   2       6.317  15.861  31.661  0.00  0.00    +0.029 C 
BRANCH  24  25
ATOM     25  CG  LEU A   2       4.808  15.693  31.541  0.00  0.00    +0.002 C 
ATOM     26  CD2 LEU A   2       4.106  16.809  32.300  0.00  0.00    +0.000 C 
ATOM     27  CD1 LEU A   2       4.389  15.675  30.066  0.00  0.00    +0.000 C 
ENDBRANCH  24  25
ENDBRANCH   1  24
TORSDOF 12
REMARK  Name = ../refined-set-2016/4cwo/4cwo_pocket.pdb
REMARK  215 active torsions:
REMARK  status: ('A' for Active; 'I' for Inactive)
REMARK    1  A    between atoms: _1  and  _3
REMARK    2  A    between atoms: _3  and  _4
REMARK    3  A    between atoms: _3  and  _6
REMARK    4  A    between atoms: _6  and  _7
REMARK    5  A    between atoms: _13  and  _15
REMARK    6  A    between atoms: _15  and  _16
REMARK    7  A    between atoms: _15  and  _18
REMARK    8  A    between atoms: _18  and  _19
REMARK    9  A    between atoms: _22  and  _24
REMARK   10  A    between atoms: _24  and  _25
REMARK   11  A    between atoms: _24  and  _27
REMARK   12  A    between atoms: _27  and  _28
REMARK   13  A    between atoms: _34  and  _36
REMARK   14  A    between atoms: _36  and  _37
REMARK   15  A    between atoms: _36  and  _39
REMARK   16  A    between atoms: _39  and  _40
REMARK   17  A    between atoms: _43  and  _45
REMARK   18  A    between atoms: _45  and  _46
REMARK   19  A    between atoms: _45  and  _48
REMARK   20  A    between atoms: _48  and  _49
REMARK   21  A    between atoms: _49  and  _50
REMARK   22  A    between atoms: _53  and  _55
REMARK   23  A    between atoms: _55  and  _56
REMARK   24  A    between atoms: _55  and  _58
REMARK   25  A    between atoms: _58  and  _59
REMARK   26  A    between atoms: _62  and  _64
REMARK   27  A    between atoms: _64  and  _65
REMARK   28  A    between atoms: _64  and  _67
REMARK   29  A    between atoms: _67  and  _68
REMARK   30  A    between atoms: _71  and  _73
REMARK   31  A    between atoms: _73  and  _74
REMARK   32  A    between atoms: _73  and  _76
REMARK   33  A    between atoms: _76  and  _77
REMARK   34  A    between atoms: _79  and  _81
REMARK   35  A    between atoms: _81  and  _82
REMARK   36  A    between atoms: _81  and  _84
REMARK   37  A    between atoms: _84  and  _85
REMARK   38  A    between atoms: _90  and  _92
REMARK   39  A    between atoms: _92  and  _93
REMARK   40  A    between atoms: _92  and  _95
REMARK   41  A    between atoms: _95  and  _96
REMARK   42  A    between atoms: _98  and  _100
REMARK   43  A    between atoms: _100  and  _101
REMARK   44  A    between atoms: _100  and  _103
REMARK   45  A    between atoms: _103  and  _104
REMARK   46  A    between atoms: _106  and  _108
REMARK   47  A    between atoms: _108  and  _109
REMARK   48  A    between atoms: _108  and  _111
REMARK   49  A    between atoms: _111  and  _112
REMARK   50  A    between atoms: _115  and  _117
REMARK   51  A    between atoms: _117  and  _118
REMARK   52  A    between atoms: _121  and  _123
REMARK   53  A    between atoms: _123  and  _124
REMARK   54  A    between atoms: _123  and  _126
REMARK   55  A    between atoms: _126  and  _127
REMARK   56  A    between atoms: _130  and  _132
REMARK   57  A    between atoms: _132  and  _133
REMARK   58  A    between atoms: _132  and  _135
REMARK   59  A    between atoms: _135  and  _136
REMARK   60  A    between atoms: _139  and  _141
REMARK   61  A    between atoms: _141  and  _142
REMARK   62  A    between atoms: _141  and  _144
REMARK   63  A    between atoms: _147  and  _149
REMARK   64  A    between atoms: _149  and  _150
REMARK   65  A    between atoms: _149  and  _152
REMARK   66  A    between atoms: _152  and  _153
REMARK   67  A    between atoms: _156  and  _158
REMARK   68  A    between atoms: _158  and  _159
REMARK   69  A    between atoms: _158  and  _161
REMARK   70  A    between atoms: _161  and  _162
REMARK   71  A    between atoms: _165  and  _167
REMARK   72  A    between atoms: _167  and  _168
REMARK   73  A    between atoms: _170  and  _172
REMARK   74  A    between atoms: _172  and  _173
REMARK   75  A    between atoms: _172  and  _175
REMARK   76  A    between atoms: _175  and  _176
REMARK   77  A    between atoms: _179  and  _181
REMARK   78  A    between atoms: _181  and  _182
REMARK   79  A    between atoms: _184  and  _186
REMARK   80  A    between atoms: _186  and  _187
REMARK   81  A    between atoms: _186  and  _189
REMARK   82  A    between atoms: _189  and  _190
REMARK   83  A    between atoms: _190  and  _191
REMARK   84  A    between atoms: _193  and  _195
REMARK   85  A    between atoms: _195  and  _196
REMARK   86  A    between atoms: _195  and  _198
REMARK   87  A    between atoms: _198  and  _199
REMARK   88  A    between atoms: _202  and  _204
REMARK   89  A    between atoms: _204  and  _205
REMARK   90  A    between atoms: _204  and  _207
REMARK   91  A    between atoms: _207  and  _208
REMARK   92  A    between atoms: _211  and  _213
REMARK   93  A    between atoms: _213  and  _214
REMARK   94  A    between atoms: _213  and  _216
REMARK   95  A    between atoms: _216  and  _217
REMARK   96  A    between atoms: _220  and  _222
REMARK   97  A    between atoms: _222  and  _223
REMARK   98  A    between atoms: _222  and  _225
REMARK   99  A    between atoms: _225  and  _226
REMARK  100  A    between atoms: _231  and  _233
REMARK  101  A    between atoms: _233  and  _234
REMARK  102  A    between atoms: _233  and  _236
REMARK  103  A    between atoms: _236  and  _237
REMARK  104  A    between atoms: _240  and  _242
REMARK  105  A    between atoms: _242  and  _243
REMARK  106  A    between atoms: _245  and  _247
REMARK  107  A    between atoms: _247  and  _248
REMARK  108  A    between atoms: _247  and  _250
REMARK  109  A    between atoms: _250  and  _251
REMARK  110  A    between atoms: _254  and  _256
REMARK  111  A    between atoms: _256  and  _257
REMARK  112  A    between atoms: _260  and  _262
REMARK  113  A    between atoms: _262  and  _263
REMARK  114  A    between atoms: _262  and  _265
REMARK  115  A    between atoms: _265  and  _266
REMARK  116  A    between atoms: _269  and  _271
REMARK  117  A    between atoms: _271  and  _272
REMARK  118  A    between atoms: _271  and  _274
REMARK  119  A    between atoms: _274  and  _275
REMARK  120  A    between atoms: _281  and  _283
REMARK  121  A    between atoms: _283  and  _284
REMARK  122  A    between atoms: _286  and  _288
REMARK  123  A    between atoms: _288  and  _289
REMARK  124  A    between atoms: _288  and  _291
REMARK  125  A    between atoms: _294  and  _296
REMARK  126  A    between atoms: _296  and  _297
REMARK  127  A    between atoms: _299  and  _301
REMARK  128  A    between atoms: _301  and  _302
REMARK  129  A    between atoms: _301  and  _304
REMARK  130  A    between atoms: _304  and  _305
REMARK  131  A    between atoms: _311  and  _313
REMARK  132  A    between atoms: _313  and  _314
REMARK  133  A    between atoms: _313  and  _316
REMARK  134  A    between atoms: _316  and  _317
REMARK  135  A    between atoms: _322  and  _323
REMARK  136  A    between atoms: _325  and  _327
REMARK  137  A    between atoms: _327  and  _328
REMARK  138  A    between atoms: _327  and  _330
REMARK  139  A    between atoms: _330  and  _331
REMARK  140  A    between atoms: _333  and  _335
REMARK  141  A    between atoms: _335  and  _336
REMARK  142  A    between atoms: _339  and  _341
REMARK  143  A    between atoms: _341  and  _342
REMARK  144  A    between atoms: _341  and  _344
REMARK  145  A    between atoms: _344  and  _345
REMARK  146  A    between atoms: _350  and  _351
REMARK  147  A    between atoms: _353  and  _355
REMARK  148  A    between atoms: _355  and  _356
REMARK  149  A    between atoms: _355  and  _358
REMARK  150  A    between atoms: _361  and  _363
REMARK  151  A    between atoms: _363  and  _364
REMARK  152  A    between atoms: _363  and  _366
REMARK  153  A    between atoms: _366  and  _367
REMARK  154  A    between atoms: _370  and  _372
REMARK  155  A    between atoms: _372  and  _373
REMARK  156  A    between atoms: _372  and  _375
REMARK  157  A    between atoms: _378  and  _380
REMARK  158  A    between atoms: _380  and  _381
REMARK  159  A    between atoms: _380  and  _383
REMARK  160  A    between atoms: _383  and  _384
REMARK  161  A    between atoms: _387  and  _389
REMARK  162  A    between atoms: _389  and  _390
REMARK  163  A    between atoms: _389  and  _392
REMARK  164  A    between atoms: _392  and  _393
REMARK  165  A    between atoms: _396  and  _398
REMARK  166  A    between atoms: _398  and  _399
REMARK  167  A    between atoms: _398  and  _401
REMARK  168  A    between atoms: _401  and  _402
REMARK  169  A    between atoms: _402  and  _403
REMARK  170  A    between atoms: _403  and  _404
REMARK  171  A    between atoms: _404  and  _405
REMARK  172  A    between atoms: _409  and  _411
REMARK  173  A    between atoms: _411  and  _412
REMARK  174  A    between atoms: _411  and  _414
REMARK  175  A    between atoms: _414  and  _415
REMARK  176  A    between atoms: _425  and  _427
REMARK  177  A    between atoms: _427  and  _428
REMARK  178  A    between atoms: _427  and  _430
REMARK  179  A    between atoms: _430  and  _431
REMARK  180  A    between atoms: _431  and  _432
REMARK  181  A    between atoms: _435  and  _437
REMARK  182  A    between atoms: _437  and  _438
REMARK  183  A    between atoms: _437  and  _440
REMARK  184  A    between atoms: _440  and  _441
REMARK  185  A    between atoms: _443  and  _445
REMARK  186  A    between atoms: _445  and  _446
REMARK  187  A    between atoms: _445  and  _448
REMARK  188  A    between atoms: _448  and  _449
REMARK  189  A    between atoms: _455  and  _457
REMARK  190  A    between atoms: _457  and  _458
REMARK  191  A    between atoms: _457  and  _460
REMARK  192  A    between atoms: _460  and  _461
REMARK  193  A    between atoms: _464  and  _466
REMARK  194  A    between atoms: _466  and  _467
REMARK  195  A    between atoms: _466  and  _469
REMARK  196  A    between atoms: _472  and  _474
REMARK  197  A    between atoms: _474  and  _475
REMARK  198  A    between atoms: _477  and  _479
REMARK  199  A    between atoms: _479  and  _480
REMARK  200  A    between atoms: _479  and  _482
REMARK  201  A    between atoms: _482  and  _483
REMARK  202  A    between atoms: _486  and  _488
REMARK  203  A    between atoms: _488  and  _489
REMARK  204  A    between atoms: _488  and  _491
REMARK  205  A    between atoms: _491  and  _492
REMARK  206  A    between atoms: _492  and  _493
REMARK  207  A    between atoms: _493  and  _494
REMARK  208  A    between atoms: _494  and  _495
REMARK  209  A    between atoms: _499  and  _501
REMARK  210  A    between atoms: _501  and  _502
REMARK  211  A    between atoms: _501  and  _504
REMARK  212  A    between atoms: _507  and  _509
REMARK  213  A    between atoms: _509  and  _510
REMARK  214  A    between atoms: _509  and  _512
REMARK  215  A    between atoms: _512  and  _513
REMARK                            x       y       z     vdW  Elec       q    Type
REMARK                         _______ _______ _______ _____ _____    ______ ____
ROOT
ATOM      1  C   ASN A   1      10.183   8.510  30.090  0.00  0.00    +0.239 C 
ATOM      2  N   LEU A   2       9.386   9.433  29.558  0.00  0.00    -0.297 N 
ATOM      3  H   LEU A   2       8.982  10.174  30.166  0.00  0.00    +0.150 HD
ATOM      4  O   ASN A   1      10.726   7.627  29.429  0.00  0.00    -0.274 OA
ENDROOT
BRANCH   1   5
ATOM      5  CA  ASN A   1      10.433   8.597  31.579  0.00  0.00    +0.154 C 
BRANCH   5   6
ATOM      6  N   ASN A   1      10.795   9.931  32.044  0.00  0.00    -0.238 NA
ATOM      7  H   ASN A   1      10.160  10.430  32.699  0.00  0.00    +0.142 HD
ENDBRANCH   5   6
BRANCH   5   8
ATOM      8  CB  ASN A   1       9.237   8.037  32.361  0.00  0.00    +0.111 C 
BRANCH   8   9
ATOM      9  CG  ASN A   1       9.491   7.984  33.858  0.00  0.00    +0.221 C 
ATOM     10  ND2 ASN A   1       8.433   8.184  34.643  0.00  0.00    -0.329 N 
ATOM     11 HD21 ASN A   1       8.540   8.158  35.677  0.00  0.00    +0.145 HD
ATOM     12 HD22 ASN A   1       7.500   8.366  34.222  0.00  0.00    +0.145 HD
ATOM     13  OD1 ASN A   1      10.621   7.764  34.304  0.00  0.00    -0.275 OA
ENDBRANCH   8   9
ENDBRANCH   5   8
ENDBRANCH   1   5
BRANCH   2  14
ATOM     14  CA  LEU A   2       9.069   9.419  28.125  0.00  0.00    +0.149 C 
BRANCH  14  15
ATOM     15  C   LEU A   2      10.294   9.695  27.261  0.00  0.00    +0.241 C 
ATOM     16  N   GLY A   3      11.127  10.628  27.708  0.00  0.00    -0.296 N 
ATOM     17  H   GLY A   3      10.871  11.174  28.555  0.00  0.00    +0.150 HD
ATOM     18  O   LEU A   2      10.479   9.074  26.209  0.00  0.00    -0.273 OA
BRANCH  16  19
ATOM     19  CA  GLY A   3      12.394  10.904  27.037  0.00  0.00    +0.163 C 
BRANCH  19  20
ATOM     20  C   GLY A   3      13.303   9.674  27.044  0.00  0.00    +0.229 C 
ATOM     21  O   GLY A   3      13.928   9.364  26.037  0.00  0.00    -0.286 OA
ENDBRANCH  19  20
ENDBRANCH  16  19
ENDBRANCH  14  15
BRANCH  14  22
ATOM     22  CB  LEU A   2       7.922  10.386  27.806  0.00  0.00    +0.029 C 
BRANCH  22  23
ATOM     23  CG  LEU A   2       6.607  10.038  28.527  0.00  0.00    +0.002 C 
ATOM     24  CD2 LEU A   2       5.569  11.132  28.338  0.00  0.00    +0.000 C 
ATOM     25  CD1 LEU A   2       6.049   8.679  28.099  0.00  0.00    +0.000 C 
ENDBRANCH  22  23
ENDBRANCH  14  22
ENDBRANCH   2  14
TORSDOF 10
REMARK  Name = ../refined-set-2016/4cwo/4cwo_pocket.pdb
REMARK  215 active torsions:
REMARK  status: ('A' for Active; 'I' for Inactive)
REMARK    1  A    between atoms: _1  and  _3
REMARK    2  A    between atoms: _3  and  _4
REMARK    3  A    between atoms: _3  and  _6
REMARK    4  A    between atoms: _6  and  _7
REMARK    5  A    between atoms: _13  and  _15
REMARK    6  A    between atoms: _15  and  _16
REMARK    7  A    between atoms: _15  and  _18
REMARK    8  A    between atoms: _18  and  _19
REMARK    9  A    between atoms: _22  and  _24
REMARK   10  A    between atoms: _24  and  _25
REMARK   11  A    between atoms: _24  and  _27
REMARK   12  A    between atoms: _27  and  _28
REMARK   13  A    between atoms: _34  and  _36
REMARK   14  A    between atoms: _36  and  _37
REMARK   15  A    between atoms: _36  and  _39
REMARK   16  A    between atoms: _39  and  _40
REMARK   17  A    between atoms: _43  and  _45
REMARK   18  A    between atoms: _45  and  _46
REMARK   19  A    between atoms: _45  and  _48
REMARK   20  A    between atoms: _48  and  _49
REMARK   21  A    between atoms: _49  and  _50
REMARK   22  A    between atoms: _53  and  _55
REMARK   23  A    between atoms: _55  and  _56
REMARK   24  A    between atoms: _55  and  _58
REMARK   25  A    between atoms: _58  and  _59
REMARK   26  A    between atoms: _62  and  _64
REMARK   27  A    between atoms: _64  and  _65
REMARK   28  A    between atoms: _64  and  _67
REMARK   29  A    between atoms: _67  and  _68
REMARK   30  A    between atoms: _71  and  _73
REMARK   31  A    between atoms: _73  and  _74
REMARK   32  A    between atoms: _73  and  _76
REMARK   33  A    between atoms: _76  and  _77
REMARK   34  A    between atoms: _79  and  _81
REMARK   35  A    between atoms: _81  and  _82
REMARK   36  A    between atoms: _81  and  _84
REMARK   37  A    between atoms: _84  and  _85
REMARK   38  A    between atoms: _90  and  _92
REMARK   39  A    between atoms: _92  and  _93
REMARK   40  A    between atoms: _92  and  _95
REMARK   41  A    between atoms: _95  and  _96
REMARK   42  A    between atoms: _98  and  _100
REMARK   43  A    between atoms: _100  and  _101
REMARK   44  A    between atoms: _100  and  _103
REMARK   45  A    between atoms: _103  and  _104
REMARK   46  A    between atoms: _106  and  _108
REMARK   47  A    between atoms: _108  and  _109
REMARK   48  A    between atoms: _108  and  _111
REMARK   49  A    between atoms: _111  and  _112
REMARK   50  A    between atoms: _115  and  _117
REMARK   51  A    between atoms: _117  and  _118
REMARK   52  A    between atoms: _121  and  _123
REMARK   53  A    between atoms: _123  and  _124
REMARK   54  A    between atoms: _123  and  _126
REMARK   55  A    between atoms: _126  and  _127
REMARK   56  A    between atoms: _130  and  _132
REMARK   57  A    between atoms: _132  and  _133
REMARK   58  A    between atoms: _132  and  _135
REMARK   59  A    between atoms: _135  and  _136
REMARK   60  A    between atoms: _139  and  _141
REMARK   61  A    between atoms: _141  and  _142
REMARK   62  A    between atoms: _141  and  _144
REMARK   63  A    between atoms: _147  and  _149
REMARK   64  A    between atoms: _149  and  _150
REMARK   65  A    between atoms: _149  and  _152
REMARK   66  A    between atoms: _152  and  _153
REMARK   67  A    between atoms: _156  and  _158
REMARK   68  A    between atoms: _158  and  _159
REMARK   69  A    between atoms: _158  and  _161
REMARK   70  A    between atoms: _161  and  _162
REMARK   71  A    between atoms: _165  and  _167
REMARK   72  A    between atoms: _167  and  _168
REMARK   73  A    between atoms: _170  and  _172
REMARK   74  A    between atoms: _172  and  _173
REMARK   75  A    between atoms: _172  and  _175
REMARK   76  A    between atoms: _175  and  _176
REMARK   77  A    between atoms: _179  and  _181
REMARK   78  A    between atoms: _181  and  _182
REMARK   79  A    between atoms: _184  and  _186
REMARK   80  A    between atoms: _186  and  _187
REMARK   81  A    between atoms: _186  and  _189
REMARK   82  A    between atoms: _189  and  _190
REMARK   83  A    between atoms: _190  and  _191
REMARK   84  A    between atoms: _193  and  _195
REMARK   85  A    between atoms: _195  and  _196
REMARK   86  A    between atoms: _195  and  _198
REMARK   87  A    between atoms: _198  and  _199
REMARK   88  A    between atoms: _202  and  _204
REMARK   89  A    between atoms: _204  and  _205
REMARK   90  A    between atoms: _204  and  _207
REMARK   91  A    between atoms: _207  and  _208
REMARK   92  A    between atoms: _211  and  _213
REMARK   93  A    between atoms: _213  and  _214
REMARK   94  A    between atoms: _213  and  _216
REMARK   95  A    between atoms: _216  and  _217
REMARK   96  A    between atoms: _220  and  _222
REMARK   97  A    between atoms: _222  and  _223
REMARK   98  A    between atoms: _222  and  _225
REMARK   99  A    between atoms: _225  and  _226
REMARK  100  A    between atoms: _231  and  _233
REMARK  101  A    between atoms: _233  and  _234
REMARK  102  A    between atoms: _233  and  _236
REMARK  103  A    between atoms: _236  and  _237
REMARK  104  A    between atoms: _240  and  _242
REMARK  105  A    between atoms: _242  and  _243
REMARK  106  A    between atoms: _245  and  _247
REMARK  107  A    between atoms: _247  and  _248
REMARK  108  A    between atoms: _247  and  _250
REMARK  109  A    between atoms: _250  and  _251
REMARK  110  A    between atoms: _254  and  _256
REMARK  111  A    between atoms: _256  and  _257
REMARK  112  A    between atoms: _260  and  _262
REMARK  113  A    between atoms: _262  and  _263
REMARK  114  A    between atoms: _262  and  _265
REMARK  115  A    between atoms: _265  and  _266
REMARK  116  A    between atoms: _269  and  _271
REMARK  117  A    between atoms: _271  and  _272
REMARK  118  A    between atoms: _271  and  _274
REMARK  119  A    between atoms: _274  and  _275
REMARK  120  A    between atoms: _281  and  _283
REMARK  121  A    between atoms: _283  and  _284
REMARK  122  A    between atoms: _286  and  _288
REMARK  123  A    between atoms: _288  and  _289
REMARK  124  A    between atoms: _288  and  _291
REMARK  125  A    between atoms: _294  and  _296
REMARK  126  A    between atoms: _296  and  _297
REMARK  127  A    between atoms: _299  and  _301
REMARK  128  A    between atoms: _301  and  _302
REMARK  129  A    between atoms: _301  and  _304
REMARK  130  A    between atoms: _304  and  _305
REMARK  131  A    between atoms: _311  and  _313
REMARK  132  A    between atoms: _313  and  _314
REMARK  133  A    between atoms: _313  and  _316
REMARK  134  A    between atoms: _316  and  _317
REMARK  135  A    between atoms: _322  and  _323
REMARK  136  A    between atoms: _325  and  _327
REMARK  137  A    between atoms: _327  and  _328
REMARK  138  A    between atoms: _327  and  _330
REMARK  139  A    between atoms: _330  and  _331
REMARK  140  A    between atoms: _333  and  _335
REMARK  141  A    between atoms: _335  and  _336
REMARK  142  A    between atoms: _339  and  _341
REMARK  143  A    between atoms: _341  and  _342
REMARK  144  A    between atoms: _341  and  _344
REMARK  145  A    between atoms: _344  and  _345
REMARK  146  A    between atoms: _350  and  _351
REMARK  147  A    between atoms: _353  and  _355
REMARK  148  A    between atoms: _355  and  _356
REMARK  149  A    between atoms: _355  and  _358
REMARK  150  A    between atoms: _361  and  _363
REMARK  151  A    between atoms: _363  and  _364
REMARK  152  A    between atoms: _363  and  _366
REMARK  153  A    between atoms: _366  and  _367
REMARK  154  A    between atoms: _370  and  _372
REMARK  155  A    between atoms: _372  and  _373
REMARK  156  A    between atoms: _372  and  _375
REMARK  157  A    between atoms: _378  and  _380
REMARK  158  A    between atoms: _380  and  _381
REMARK  159  A    between atoms: _380  and  _383
REMARK  160  A    between atoms: _383  and  _384
REMARK  161  A    between atoms: _387  and  _389
REMARK  162  A    between atoms: _389  and  _390
REMARK  163  A    between atoms: _389  and  _392
REMARK  164  A    between atoms: _392  and  _393
REMARK  165  A    between atoms: _396  and  _398
REMARK  166  A    between atoms: _398  and  _399
REMARK  167  A    between atoms: _398  and  _401
REMARK  168  A    between atoms: _401  and  _402
REMARK  169  A    between atoms: _402  and  _403
REMARK  170  A    between atoms: _403  and  _404
REMARK  171  A    between atoms: _404  and  _405
REMARK  172  A    between atoms: _409  and  _411
REMARK  173  A    between atoms: _411  and  _412
REMARK  174  A    between atoms: _411  and  _414
REMARK  175  A    between atoms: _414  and  _415
REMARK  176  A    between atoms: _425  and  _427
REMARK  177  A    between atoms: _427  and  _428
REMARK  178  A    between atoms: _427  and  _430
REMARK  179  A    between atoms: _430  and  _431
REMARK  180  A    between atoms: _431  and  _432
REMARK  181  A    between atoms: _435  and  _437
REMARK  182  A    between atoms: _437  and  _438
REMARK  183  A    between atoms: _437  and  _440
REMARK  184  A    between atoms: _440  and  _441
REMARK  185  A    between atoms: _443  and  _445
REMARK  186  A    between atoms: _445  and  _446
REMARK  187  A    between atoms: _445  and  _448
REMARK  188  A    between atoms: _448  and  _449
REMARK  189  A    between atoms: _455  and  _457
REMARK  190  A    between atoms: _457  and  _458
REMARK  191  A    between atoms: _457  and  _460
REMARK  192  A    between atoms: _460  and  _461
REMARK  193  A    between atoms: _464  and  _466
REMARK  194  A    between atoms: _466  and  _467
REMARK  195  A    between atoms: _466  and  _469
REMARK  196  A    between atoms: _472  and  _474
REMARK  197  A    between atoms: _474  and  _475
REMARK  198  A    between atoms: _477  and  _479
REMARK  199  A    between atoms: _479  and  _480
REMARK  200  A    between atoms: _479  and  _482
REMARK  201  A    between atoms: _482  and  _483
REMARK  202  A    between atoms: _486  and  _488
REMARK  203  A    between atoms: _488  and  _489
REMARK  204  A    between atoms: _488  and  _491
REMARK  205  A    between atoms: _491  and  _492
REMARK  206  A    between atoms: _492  and  _493
REMARK  207  A    between atoms: _493  and  _494
REMARK  208  A    between atoms: _494  and  _495
REMARK  209  A    between atoms: _499  and  _501
REMARK  210  A    between atoms: _501  and  _502
REMARK  211  A    between atoms: _501  and  _504
REMARK  212  A    between atoms: _507  and  _509
REMARK  213  A    between atoms: _509  and  _510
REMARK  214  A    between atoms: _509  and  _512
REMARK  215  A    between atoms: _512  and  _513
REMARK                            x       y       z     vdW  Elec       q    Type
REMARK                         _______ _______ _______ _____ _____    ______ ____
ROOT
ATOM      1  C   ILE A   1      12.171   5.609  24.938  0.00  0.00    +0.238 C 
ATOM      2  N   ALA A   2      12.024   6.880  24.569  0.00  0.00    -0.298 N 
ATOM      3  H   ALA A   2      11.810   7.586  25.303  0.00  0.00    +0.150 HD
ATOM      4  O   ILE A   1      12.510   4.716  24.166  0.00  0.00    -0.274 OA
ENDROOT
BRANCH   2   5
ATOM      5  CA  ALA A   2      12.148   7.335  23.181  0.00  0.00    +0.137 C 
ATOM      6  CB  ALA A   2      11.618   8.764  23.051  0.00  0.00    +0.030 C 
BRANCH   5   7
ATOM      7  C   ALA A   2      13.566   7.237  22.584  0.00  0.00    +0.227 C 
ATOM      8  O   ALA A   2      13.723   7.329  21.354  0.00  0.00    -0.286 OA
ENDBRANCH   5   7
ENDBRANCH   2   5
BRANCH   1   9
ATOM      9  CA  ILE A   1      11.894   5.300  26.406  0.00  0.00    +0.145 C 
BRANCH   9  10
ATOM     10  N   ILE A   1      12.445   6.325  27.314  0.00  0.00    -0.238 NA
ATOM     11  H   ILE A   1      11.800   6.824  27.959  0.00  0.00    +0.142 HD
ENDBRANCH   9  10
BRANCH   9  12
ATOM     12  CB  ILE A   1      10.366   5.106  26.590  0.00  0.00    +0.025 C 
ATOM     13  CG2 ILE A   1       9.801   4.178  25.520  0.00  0.00    +0.002 C 
BRANCH  12  14
ATOM     14  CG1 ILE A   1      10.057   4.515  27.961  0.00  0.00    +0.002 C 
ATOM     15  CD1 ILE A   1       8.585   4.535  28.304  0.00  0.00    +0.000 C 
ENDBRANCH  12  14
ENDBRANCH   9  12
ENDBRANCH   1   9
TORSDOF 6
REMARK  Name = ../refined-set-2016/4cwo/4cwo_pocket.pdb
REMARK  215 active torsions:
REMARK  status: ('A' for Active; 'I' for Inactive)
REMARK    1  A    between atoms: _1  and  _3
REMARK    2  A    between atoms: _3  and  _4
REMARK    3  A    between atoms: _3  and  _6
REMARK    4  A    between atoms: _6  and  _7
REMARK    5  A    between atoms: _13  and  _15
REMARK    6  A    between atoms: _15  and  _16
REMARK    7  A    between atoms: _15  and  _18
REMARK    8  A    between atoms: _18  and  _19
REMARK    9  A    between atoms: _22  and  _24
REMARK   10  A    between atoms: _24  and  _25
REMARK   11  A    between atoms: _24  and  _27
REMARK   12  A    between atoms: _27  and  _28
REMARK   13  A    between atoms: _34  and  _36
REMARK   14  A    between atoms: _36  and  _37
REMARK   15  A    between atoms: _36  and  _39
REMARK   16  A    between atoms: _39  and  _40
REMARK   17  A    between atoms: _43  and  _45
REMARK   18  A    between atoms: _45  and  _46
REMARK   19  A    between atoms: _45  and  _48
REMARK   20  A    between atoms: _48  and  _49
REMARK   21  A    between atoms: _49  and  _50
REMARK   22  A    between atoms: _53  and  _55
REMARK   23  A    between atoms: _55  and  _56
REMARK   24  A    between atoms: _55  and  _58
REMARK   25  A    between atoms: _58  and  _59
REMARK   26  A    between atoms: _62  and  _64
REMARK   27  A    between atoms: _64  and  _65
REMARK   28  A    between atoms: _64  and  _67
REMARK   29  A    between atoms: _67  and  _68
REMARK   30  A    between atoms: _71  and  _73
REMARK   31  A    between atoms: _73  and  _74
REMARK   32  A    between atoms: _73  and  _76
REMARK   33  A    between atoms: _76  and  _77
REMARK   34  A    between atoms: _79  and  _81
REMARK   35  A    between atoms: _81  and  _82
REMARK   36  A    between atoms: _81  and  _84
REMARK   37  A    between atoms: _84  and  _85
REMARK   38  A    between atoms: _90  and  _92
REMARK   39  A    between atoms: _92  and  _93
REMARK   40  A    between atoms: _92  and  _95
REMARK   41  A    between atoms: _95  and  _96
REMARK   42  A    between atoms: _98  and  _100
REMARK   43  A    between atoms: _100  and  _101
REMARK   44  A    between atoms: _100  and  _103
REMARK   45  A    between atoms: _103  and  _104
REMARK   46  A    between atoms: _106  and  _108
REMARK   47  A    between atoms: _108  and  _109
REMARK   48  A    between atoms: _108  and  _111
REMARK   49  A    between atoms: _111  and  _112
REMARK   50  A    between atoms: _115  and  _117
REMARK   51  A    between atoms: _117  and  _118
REMARK   52  A    between atoms: _121  and  _123
REMARK   53  A    between atoms: _123  and  _124
REMARK   54  A    between atoms: _123  and  _126
REMARK   55  A    between atoms: _126  and  _127
REMARK   56  A    between atoms: _130  and  _132
REMARK   57  A    between atoms: _132  and  _133
REMARK   58  A    between atoms: _132  and  _135
REMARK   59  A    between atoms: _135  and  _136
REMARK   60  A    between atoms: _139  and  _141
REMARK   61  A    between atoms: _141  and  _142
REMARK   62  A    between atoms: _141  and  _144
REMARK   63  A    between atoms: _147  and  _149
REMARK   64  A    between atoms: _149  and  _150
REMARK   65  A    between atoms: _149  and  _152
REMARK   66  A    between atoms: _152  and  _153
REMARK   67  A    between atoms: _156  and  _158
REMARK   68  A    between atoms: _158  and  _159
REMARK   69  A    between atoms: _158  and  _161
REMARK   70  A    between atoms: _161  and  _162
REMARK   71  A    between atoms: _165  and  _167
REMARK   72  A    between atoms: _167  and  _168
REMARK   73  A    between atoms: _170  and  _172
REMARK   74  A    between atoms: _172  and  _173
REMARK   75  A    between atoms: _172  and  _175
REMARK   76  A    between atoms: _175  and  _176
REMARK   77  A    between atoms: _179  and  _181
REMARK   78  A    between atoms: _181  and  _182
REMARK   79  A    between atoms: _184  and  _186
REMARK   80  A    between atoms: _186  and  _187
REMARK   81  A    between atoms: _186  and  _189
REMARK   82  A    between atoms: _189  and  _190
REMARK   83  A    between atoms: _190  and  _191
REMARK   84  A    between atoms: _193  and  _195
REMARK   85  A    between atoms: _195  and  _196
REMARK   86  A    between atoms: _195  and  _198
REMARK   87  A    between atoms: _198  and  _199
REMARK   88  A    between atoms: _202  and  _204
REMARK   89  A    between atoms: _204  and  _205
REMARK   90  A    between atoms: _204  and  _207
REMARK   91  A    between atoms: _207  and  _208
REMARK   92  A    between atoms: _211  and  _213
REMARK   93  A    between atoms: _213  and  _214
REMARK   94  A    between atoms: _213  and  _216
REMARK   95  A    between atoms: _216  and  _217
REMARK   96  A    between atoms: _220  and  _222
REMARK   97  A    between atoms: _222  and  _223
REMARK   98  A    between atoms: _222  and  _225
REMARK   99  A    between atoms: _225  and  _226
REMARK  100  A    between atoms: _231  and  _233
REMARK  101  A    between atoms: _233  and  _234
REMARK  102  A    between atoms: _233  and  _236
REMARK  103  A    between atoms: _236  and  _237
REMARK  104  A    between atoms: _240  and  _242
REMARK  105  A    between atoms: _242  and  _243
REMARK  106  A    between atoms: _245  and  _247
REMARK  107  A    between atoms: _247  and  _248
REMARK  108  A    between atoms: _247  and  _250
REMARK  109  A    between atoms: _250  and  _251
REMARK  110  A    between atoms: _254  and  _256
REMARK  111  A    between atoms: _256  and  _257
REMARK  112  A    between atoms: _260  and  _262
REMARK  113  A    between atoms: _262  and  _263
REMARK  114  A    between atoms: _262  and  _265
REMARK  115  A    between atoms: _265  and  _266
REMARK  116  A    between atoms: _269  and  _271
REMARK  117  A    between atoms: _271  and  _272
REMARK  118  A    between atoms: _271  and  _274
REMARK  119  A    between atoms: _274  and  _275
REMARK  120  A    between atoms: _281  and  _283
REMARK  121  A    between atoms: _283  and  _284
REMARK  122  A    between atoms: _286  and  _288
REMARK  123  A    between atoms: _288  and  _289
REMARK  124  A    between atoms: _288  and  _291
REMARK  125  A    between atoms: _294  and  _296
REMARK  126  A    between atoms: _296  and  _297
REMARK  127  A    between atoms: _299  and  _301
REMARK  128  A    between atoms: _301  and  _302
REMARK  129  A    between atoms: _301  and  _304
REMARK  130  A    between atoms: _304  and  _305
REMARK  131  A    between atoms: _311  and  _313
REMARK  132  A    between atoms: _313  and  _314
REMARK  133  A    between atoms: _313  and  _316
REMARK  134  A    between atoms: _316  and  _317
REMARK  135  A    between atoms: _322  and  _323
REMARK  136  A    between atoms: _325  and  _327
REMARK  137  A    between atoms: _327  and  _328
REMARK  138  A    between atoms: _327  and  _330
REMARK  139  A    between atoms: _330  and  _331
REMARK  140  A    between atoms: _333  and  _335
REMARK  141  A    between atoms: _335  and  _336
REMARK  142  A    between atoms: _339  and  _341
REMARK  143  A    between atoms: _341  and  _342
REMARK  144  A    between atoms: _341  and  _344
REMARK  145  A    between atoms: _344  and  _345
REMARK  146  A    between atoms: _350  and  _351
REMARK  147  A    between atoms: _353  and  _355
REMARK  148  A    between atoms: _355  and  _356
REMARK  149  A    between atoms: _355  and  _358
REMARK  150  A    between atoms: _361  and  _363
REMARK  151  A    between atoms: _363  and  _364
REMARK  152  A    between atoms: _363  and  _366
REMARK  153  A    between atoms: _366  and  _367
REMARK  154  A    between atoms: _370  and  _372
REMARK  155  A    between atoms: _372  and  _373
REMARK  156  A    between atoms: _372  and  _375
REMARK  157  A    between atoms: _378  and  _380
REMARK  158  A    between atoms: _380  and  _381
REMARK  159  A    between atoms: _380  and  _383
REMARK  160  A    between atoms: _383  and  _384
REMARK  161  A    between atoms: _387  and  _389
REMARK  162  A    between atoms: _389  and  _390
REMARK  163  A    between atoms: _389  and  _392
REMARK  164  A    between atoms: _392  and  _393
REMARK  165  A    between atoms: _396  and  _398
REMARK  166  A    between atoms: _398  and  _399
REMARK  167  A    between atoms: _398  and  _401
REMARK  168  A    between atoms: _401  and  _402
REMARK  169  A    between atoms: _402  and  _403
REMARK  170  A    between atoms: _403  and  _404
REMARK  171  A    between atoms: _404  and  _405
REMARK  172  A    between atoms: _409  and  _411
REMARK  173  A    between atoms: _411  and  _412
REMARK  174  A    between atoms: _411  and  _414
REMARK  175  A    between atoms: _414  and  _415
REMARK  176  A    between atoms: _425  and  _427
REMARK  177  A    between atoms: _427  and  _428
REMARK  178  A    between atoms: _427  and  _430
REMARK  179  A    between atoms: _430  and  _431
REMARK  180  A    between atoms: _431  and  _432
REMARK  181  A    between atoms: _435  and  _437
REMARK  182  A    between atoms: _437  and  _438
REMARK  183  A    between atoms: _437  and  _440
REMARK  184  A    between atoms: _440  and  _441
REMARK  185  A    between atoms: _443  and  _445
REMARK  186  A    between atoms: _445  and  _446
REMARK  187  A    between atoms: _445  and  _448
REMARK  188  A    between atoms: _448  and  _449
REMARK  189  A    between atoms: _455  and  _457
REMARK  190  A    between atoms: _457  and  _458
REMARK  191  A    between atoms: _457  and  _460
REMARK  192  A    between atoms: _460  and  _461
REMARK  193  A    between atoms: _464  and  _466
REMARK  194  A    between atoms: _466  and  _467
REMARK  195  A    between atoms: _466  and  _469
REMARK  196  A    between atoms: _472  and  _474
REMARK  197  A    between atoms: _474  and  _475
REMARK  198  A    between atoms: _477  and  _479
REMARK  199  A    between atoms: _479  and  _480
REMARK  200  A    between atoms: _479  and  _482
REMARK  201  A    between atoms: _482  and  _483
REMARK  202  A    between atoms: _486  and  _488
REMARK  203  A    between atoms: _488  and  _489
REMARK  204  A    between atoms: _488  and  _491
REMARK  205  A    between atoms: _491  and  _492
REMARK  206  A    between atoms: _492  and  _493
REMARK  207  A    between atoms: _493  and  _494
REMARK  208  A    between atoms: _494  and  _495
REMARK  209  A    between atoms: _499  and  _501
REMARK  210  A    between atoms: _501  and  _502
REMARK  211  A    between atoms: _501  and  _504
REMARK  212  A    between atoms: _507  and  _509
REMARK  213  A    between atoms: _509  and  _510
REMARK  214  A    between atoms: _509  and  _512
REMARK  215  A    between atoms: _512  and  _513
REMARK                            x       y       z     vdW  Elec       q    Type
REMARK                         _______ _______ _______ _____ _____    ______ ____
ROOT
ATOM      1  CA  THR A   1      14.741   7.580  17.824  0.00  0.00    +0.160 C 
ENDROOT
BRANCH   1   2
ATOM      2  N   THR A   1      14.130   6.516  18.628  0.00  0.00    -0.237 NA
ATOM      3  H   THR A   1      14.106   6.631  19.661  0.00  0.00    +0.142 HD
ENDBRANCH   1   2
BRANCH   1   4
ATOM      4  CB  THR A   1      15.236   8.732  18.722  0.00  0.00    +0.134 C 
ATOM      5  CG2 THR A   1      15.834   9.837  17.904  0.00  0.00    +0.034 C 
BRANCH   4   6
ATOM      6  OG1 THR A   1      14.140   9.250  19.473  0.00  0.00    -0.383 OA
ATOM      7  HG1 THR A   1      13.758   8.531  20.036  0.00  0.00    +0.210 HD
ENDBRANCH   4   6
ENDBRANCH   1   4
BRANCH   1   8
ATOM      8  C   THR A   1      15.934   7.051  17.044  0.00  0.00    +0.227 C 
ATOM      9  O   THR A   1      16.070   7.316  15.852  0.00  0.00    -0.287 OA
ENDBRANCH   1   8
TORSDOF 4
REMARK  Name = ../refined-set-2016/4cwo/4cwo_pocket.pdb
REMARK  215 active torsions:
REMARK  status: ('A' for Active; 'I' for Inactive)
REMARK    1  A    between atoms: _1  and  _3
REMARK    2  A    between atoms: _3  and  _4
REMARK    3  A    between atoms: _3  and  _6
REMARK    4  A    between atoms: _6  and  _7
REMARK    5  A    between atoms: _13  and  _15
REMARK    6  A    between atoms: _15  and  _16
REMARK    7  A    between atoms: _15  and  _18
REMARK    8  A    between atoms: _18  and  _19
REMARK    9  A    between atoms: _22  and  _24
REMARK   10  A    between atoms: _24  and  _25
REMARK   11  A    between atoms: _24  and  _27
REMARK   12  A    between atoms: _27  and  _28
REMARK   13  A    between atoms: _34  and  _36
REMARK   14  A    between atoms: _36  and  _37
REMARK   15  A    between atoms: _36  and  _39
REMARK   16  A    between atoms: _39  and  _40
REMARK   17  A    between atoms: _43  and  _45
REMARK   18  A    between atoms: _45  and  _46
REMARK   19  A    between atoms: _45  and  _48
REMARK   20  A    between atoms: _48  and  _49
REMARK   21  A    between atoms: _49  and  _50
REMARK   22  A    between atoms: _53  and  _55
REMARK   23  A    between atoms: _55  and  _56
REMARK   24  A    between atoms: _55  and  _58
REMARK   25  A    between atoms: _58  and  _59
REMARK   26  A    between atoms: _62  and  _64
REMARK   27  A    between atoms: _64  and  _65
REMARK   28  A    between atoms: _64  and  _67
REMARK   29  A    between atoms: _67  and  _68
REMARK   30  A    between atoms: _71  and  _73
REMARK   31  A    between atoms: _73  and  _74
REMARK   32  A    between atoms: _73  and  _76
REMARK   33  A    between atoms: _76  and  _77
REMARK   34  A    between atoms: _79  and  _81
REMARK   35  A    between atoms: _81  and  _82
REMARK   36  A    between atoms: _81  and  _84
REMARK   37  A    between atoms: _84  and  _85
REMARK   38  A    between atoms: _90  and  _92
REMARK   39  A    between atoms: _92  and  _93
REMARK   40  A    between atoms: _92  and  _95
REMARK   41  A    between atoms: _95  and  _96
REMARK   42  A    between atoms: _98  and  _100
REMARK   43  A    between atoms: _100  and  _101
REMARK   44  A    between atoms: _100  and  _103
REMARK   45  A    between atoms: _103  and  _104
REMARK   46  A    between atoms: _106  and  _108
REMARK   47  A    between atoms: _108  and  _109
REMARK   48  A    between atoms: _108  and  _111
REMARK   49  A    between atoms: _111  and  _112
REMARK   50  A    between atoms: _115  and  _117
REMARK   51  A    between atoms: _117  and  _118
REMARK   52  A    between atoms: _121  and  _123
REMARK   53  A    between atoms: _123  and  _124
REMARK   54  A    between atoms: _123  and  _126
REMARK   55  A    between atoms: _126  and  _127
REMARK   56  A    between atoms: _130  and  _132
REMARK   57  A    between atoms: _132  and  _133
REMARK   58  A    between atoms: _132  and  _135
REMARK   59  A    between atoms: _135  and  _136
REMARK   60  A    between atoms: _139  and  _141
REMARK   61  A    between atoms: _141  and  _142
REMARK   62  A    between atoms: _141  and  _144
REMARK   63  A    between atoms: _147  and  _149
REMARK   64  A    between atoms: _149  and  _150
REMARK   65  A    between atoms: _149  and  _152
REMARK   66  A    between atoms: _152  and  _153
REMARK   67  A    between atoms: _156  and  _158
REMARK   68  A    between atoms: _158  and  _159
REMARK   69  A    between atoms: _158  and  _161
REMARK   70  A    between atoms: _161  and  _162
REMARK   71  A    between atoms: _165  and  _167
REMARK   72  A    between atoms: _167  and  _168
REMARK   73  A    between atoms: _170  and  _172
REMARK   74  A    between atoms: _172  and  _173
REMARK   75  A    between atoms: _172  and  _175
REMARK   76  A    between atoms: _175  and  _176
REMARK   77  A    between atoms: _179  and  _181
REMARK   78  A    between atoms: _181  and  _182
REMARK   79  A    between atoms: _184  and  _186
REMARK   80  A    between atoms: _186  and  _187
REMARK   81  A    between atoms: _186  and  _189
REMARK   82  A    between atoms: _189  and  _190
REMARK   83  A    between atoms: _190  and  _191
REMARK   84  A    between atoms: _193  and  _195
REMARK   85  A    between atoms: _195  and  _196
REMARK   86  A    between atoms: _195  and  _198
REMARK   87  A    between atoms: _198  and  _199
REMARK   88  A    between atoms: _202  and  _204
REMARK   89  A    between atoms: _204  and  _205
REMARK   90  A    between atoms: _204  and  _207
REMARK   91  A    between atoms: _207  and  _208
REMARK   92  A    between atoms: _211  and  _213
REMARK   93  A    between atoms: _213  and  _214
REMARK   94  A    between atoms: _213  and  _216
REMARK   95  A    between atoms: _216  and  _217
REMARK   96  A    between atoms: _220  and  _222
REMARK   97  A    between atoms: _222  and  _223
REMARK   98  A    between atoms: _222  and  _225
REMARK   99  A    between atoms: _225  and  _226
REMARK  100  A    between atoms: _231  and  _233
REMARK  101  A    between atoms: _233  and  _234
REMARK  102  A    between atoms: _233  and  _236
REMARK  103  A    between atoms: _236  and  _237
REMARK  104  A    between atoms: _240  and  _242
REMARK  105  A    between atoms: _242  and  _243
REMARK  106  A    between atoms: _245  and  _247
REMARK  107  A    between atoms: _247  and  _248
REMARK  108  A    between atoms: _247  and  _250
REMARK  109  A    between atoms: _250  and  _251
REMARK  110  A    between atoms: _254  and  _256
REMARK  111  A    between atoms: _256  and  _257
REMARK  112  A    between atoms: _260  and  _262
REMARK  113  A    between atoms: _262  and  _263
REMARK  114  A    between atoms: _262  and  _265
REMARK  115  A    between atoms: _265  and  _266
REMARK  116  A    between atoms: _269  and  _271
REMARK  117  A    between atoms: _271  and  _272
REMARK  118  A    between atoms: _271  and  _274
REMARK  119  A    between atoms: _274  and  _275
REMARK  120  A    between atoms: _281  and  _283
REMARK  121  A    between atoms: _283  and  _284
REMARK  122  A    between atoms: _286  and  _288
REMARK  123  A    between atoms: _288  and  _289
REMARK  124  A    between atoms: _288  and  _291
REMARK  125  A    between atoms: _294  and  _296
REMARK  126  A    between atoms: _296  and  _297
REMARK  127  A    between atoms: _299  and  _301
REMARK  128  A    between atoms: _301  and  _302
REMARK  129  A    between atoms: _301  and  _304
REMARK  130  A    between atoms: _304  and  _305
REMARK  131  A    between atoms: _311  and  _313
REMARK  132  A    between atoms: _313  and  _314
REMARK  133  A    between atoms: _313  and  _316
REMARK  134  A    between atoms: _316  and  _317
REMARK  135  A    between atoms: _322  and  _323
REMARK  136  A    between atoms: _325  and  _327
REMARK  137  A    between atoms: _327  and  _328
REMARK  138  A    between atoms: _327  and  _330
REMARK  139  A    between atoms: _330  and  _331
REMARK  140  A    between atoms: _333  and  _335
REMARK  141  A    between atoms: _335  and  _336
REMARK  142  A    between atoms: _339  and  _341
REMARK  143  A    between atoms: _341  and  _342
REMARK  144  A    between atoms: _341  and  _344
REMARK  145  A    between atoms: _344  and  _345
REMARK  146  A    between atoms: _350  and  _351
REMARK  147  A    between atoms: _353  and  _355
REMARK  148  A    between atoms: _355  and  _356
REMARK  149  A    between atoms: _355  and  _358
REMARK  150  A    between atoms: _361  and  _363
REMARK  151  A    between atoms: _363  and  _364
REMARK  152  A    between atoms: _363  and  _366
REMARK  153  A    between atoms: _366  and  _367
REMARK  154  A    between atoms: _370  and  _372
REMARK  155  A    between atoms: _372  and  _373
REMARK  156  A    between atoms: _372  and  _375
REMARK  157  A    between atoms: _378  and  _380
REMARK  158  A    between atoms: _380  and  _381
REMARK  159  A    between atoms: _380  and  _383
REMARK  160  A    between atoms: _383  and  _384
REMARK  161  A    between atoms: _387  and  _389
REMARK  162  A    between atoms: _389  and  _390
REMARK  163  A    between atoms: _389  and  _392
REMARK  164  A    between atoms: _392  and  _393
REMARK  165  A    between atoms: _396  and  _398
REMARK  166  A    between atoms: _398  and  _399
REMARK  167  A    between atoms: _398  and  _401
REMARK  168  A    between atoms: _401  and  _402
REMARK  169  A    between atoms: _402  and  _403
REMARK  170  A    between atoms: _403  and  _404
REMARK  171  A    between atoms: _404  and  _405
REMARK  172  A    between atoms: _409  and  _411
REMARK  173  A    between atoms: _411  and  _412
REMARK  174  A    between atoms: _411  and  _414
REMARK  175  A    between atoms: _414  and  _415
REMARK  176  A    between atoms: _425  and  _427
REMARK  177  A    between atoms: _427  and  _428
REMARK  178  A    between atoms: _427  and  _430
REMARK  179  A    between atoms: _430  and  _431
REMARK  180  A    between atoms: _431  and  _432
REMARK  181  A    between atoms: _435  and  _437
REMARK  182  A    between atoms: _437  and  _438
REMARK  183  A    between atoms: _437  and  _440
REMARK  184  A    between atoms: _440  and  _441
REMARK  185  A    between atoms: _443  and  _445
REMARK  186  A    between atoms: _445  and  _446
REMARK  187  A    between atoms: _445  and  _448
REMARK  188  A    between atoms: _448  and  _449
REMARK  189  A    between atoms: _455  and  _457
REMARK  190  A    between atoms: _457  and  _458
REMARK  191  A    between atoms: _457  and  _460
REMARK  192  A    between atoms: _460  and  _461
REMARK  193  A    between atoms: _464  and  _466
REMARK  194  A    between atoms: _466  and  _467
REMARK  195  A    between atoms: _466  and  _469
REMARK  196  A    between atoms: _472  and  _474
REMARK  197  A    between atoms: _474  and  _475
REMARK  198  A    between atoms: _477  and  _479
REMARK  199  A    between atoms: _479  and  _480
REMARK  200  A    between atoms: _479  and  _482
REMARK  201  A    between atoms: _482  and  _483
REMARK  202  A    between atoms: _486  and  _488
REMARK  203  A    between atoms: _488  and  _489
REMARK  204  A    between atoms: _488  and  _491
REMARK  205  A    between atoms: _491  and  _492
REMARK  206  A    between atoms: _492  and  _493
REMARK  207  A    between atoms: _493  and  _494
REMARK  208  A    between atoms: _494  and  _495
REMARK  209  A    between atoms: _499  and  _501
REMARK  210  A    between atoms: _501  and  _502
REMARK  211  A    between atoms: _501  and  _504
REMARK  212  A    between atoms: _507  and  _509
REMARK  213  A    between atoms: _509  and  _510
REMARK  214  A    between atoms: _509  and  _512
REMARK  215  A    between atoms: _512  and  _513
REMARK                            x       y       z     vdW  Elec       q    Type
REMARK                         _______ _______ _______ _____ _____    ______ ____
ROOT
ATOM      1  C   PHE A   5       5.384  13.715  18.447  0.00  0.00    +0.241 C 
ATOM      2  O   PHE A   5       4.816  14.766  18.183  0.00  0.00    -0.273 OA
ATOM      3  N   TYR A   6       6.666  13.485  18.115  0.00  0.00    -0.297 N 
ATOM      4  H   TYR A   6       7.054  12.527  18.233  0.00  0.00    +0.150 HD
ENDROOT
BRANCH   3   5
ATOM      5  CA  TYR A   6       7.534  14.544  17.591  0.00  0.00    +0.153 C 
BRANCH   5   6
ATOM      6  C   TYR A   6       7.206  14.945  16.162  0.00  0.00    +0.241 C 
ATOM      7  O   TYR A   6       7.681  15.979  15.681  0.00  0.00    -0.273 OA
ATOM      8  N   SER A   7       6.374  14.146  15.490  0.00  0.00    -0.295 N 
ATOM      9  H   SER A   7       6.113  13.226  15.898  0.00  0.00    +0.150 HD
BRANCH   8  10
ATOM     10  CA  SER A   7       5.820  14.537  14.189  0.00  0.00    +0.178 C 
BRANCH  10  11
ATOM     11  C   SER A   7       4.972  15.823  14.273  0.00  0.00    +0.243 C 
ATOM     12  N   ALA A   8       4.518  16.195  15.469  0.00  0.00    -0.297 N 
ATOM     13  H   ALA A   8       4.654  15.572  16.290  0.00  0.00    +0.150 HD
ATOM     14  O   SER A   7       4.711  16.457  13.241  0.00  0.00    -0.273 OA
BRANCH  12  15
ATOM     15  CA  ALA A   8       3.818  17.496  15.636  0.00  0.00    +0.149 C 
ATOM     16  CB  ALA A   8       3.489  17.763  17.096  0.00  0.00    +0.031 C 
BRANCH  15  17
ATOM     17  C   ALA A   8       4.633  18.655  15.058  0.00  0.00    +0.241 C 
ATOM     18  N   TYR A   9       5.967  18.544  15.086  0.00  0.00    -0.298 N 
ATOM     19  H   TYR A   9       6.401  17.680  15.468  0.00  0.00    +0.150 HD
ATOM     20  O   ALA A   8       4.058  19.625  14.564  0.00  0.00    -0.273 OA
BRANCH  18  21
ATOM     21  CA  TYR A   9       6.833  19.634  14.581  0.00  0.00    +0.141 C 
BRANCH  21  22
ATOM     22  C   TYR A   9       6.945  19.739  13.050  0.00  0.00    +0.227 C 
ATOM     23  O   TYR A   9       7.619  20.626  12.537  0.00  0.00    -0.286 OA
ENDBRANCH  21  22
BRANCH  21  24
ATOM     24  CB  TYR A   9       8.208  19.601  15.267  0.00  0.00    +0.054 C 
BRANCH  24  25
ATOM     25  CG  TYR A   9       8.075  19.941  16.731  0.00  0.00    -0.020 A 
ATOM     26  CD2 TYR A   9       7.880  18.943  17.683  0.00  0.00    -0.001 A 
ATOM     27  CE2 TYR A   9       7.718  19.255  19.040  0.00  0.00    +0.036 A 
ATOM     28  CZ  TYR A   9       7.752  20.592  19.447  0.00  0.00    +0.134 A 
ATOM     29  CE1 TYR A   9       7.933  21.605  18.504  0.00  0.00    +0.036 A 
ATOM     30  CD1 TYR A   9       8.077  21.276  17.158  0.00  0.00    -0.001 A 
BRANCH  28  31
ATOM     31  OH  TYR A   9       7.587  20.933  20.780  0.00  0.00    -0.506 OA
ATOM     32  HH  TYR A   9       7.641  21.917  20.877  0.00  0.00    +0.292 HD
ENDBRANCH  28  31
ENDBRANCH  24  25
ENDBRANCH  21  24
ENDBRANCH  18  21
ENDBRANCH  15  17
ENDBRANCH  12  15
ENDBRANCH  10  11
BRANCH  10  33
ATOM     33  CB  SER A   7       4.976  13.409  13.578  0.00  0.00    +0.166 C 
BRANCH  33  34
ATOM     34  OG  SER A   7       3.702  13.314  14.201  0.00  0.00    -0.380 OA
ATOM     35  H   SER A   7       3.821  13.129  15.166  0.00  0.00    +0.211 HD
ENDBRANCH  33  34
ENDBRANCH  10  33
ENDBRANCH   8  10
ENDBRANCH   5   6
BRANCH   5  36
ATOM     36  CB  TYR A   6       9.028  14.194  17.775  0.00  0.00    +0.055 C 
BRANCH  36  37
ATOM     37  CG  TYR A   6       9.351  13.981  19.222  0.00  0.00    -0.020 A 
ATOM     38  CD2 TYR A   6       9.605  15.064  20.060  0.00  0.00    -0.001 A 
ATOM     39  CE2 TYR A   6       9.861  14.883  21.419  0.00  0.00    +0.036 A 
ATOM     40  CZ  TYR A   6       9.866  13.610  21.959  0.00  0.00    +0.134 A 
ATOM     41  CE1 TYR A   6       9.596  12.503  21.159  0.00  0.00    +0.036 A 
ATOM     42  CD1 TYR A   6       9.339  12.694  19.790  0.00  0.00    -0.001 A 
BRANCH  40  43
ATOM     43  OH  TYR A   6      10.140  13.466  23.324  0.00  0.00    -0.506 OA
ATOM     44  HH  TYR A   6       9.366  13.042  23.772  0.00  0.00    +0.292 HD
ENDBRANCH  40  43
ENDBRANCH  36  37
ENDBRANCH   5  36
ENDBRANCH   3   5
BRANCH   1  45
ATOM     45  CA  PHE A   5       4.603  12.574  19.132  0.00  0.00    +0.153 C 
BRANCH  45  47
ATOM     46  C   GLY A   4       4.857  11.105  17.179  0.00  0.00    +0.243 C 
ATOM     47  N   PHE A   5       4.856  11.266  18.504  0.00  0.00    -0.297 N 
ATOM     48  H   PHE A   5       5.040  10.442  19.112  0.00  0.00    +0.150 HD
ATOM     49  O   GLY A   4       4.599  12.033  16.389  0.00  0.00    -0.273 OA
BRANCH  46  50
ATOM     50  CA  GLY A   4       5.173   9.709  16.645  0.00  0.00    +0.176 C 
BRANCH  50  53
ATOM     51  C   VAL A   3       7.345   9.402  17.753  0.00  0.00    +0.241 C 
ATOM     52  O   VAL A   3       7.720  10.531  17.439  0.00  0.00    -0.273 OA
ATOM     53  N   GLY A   4       6.145   8.925  17.409  0.00  0.00    -0.295 N 
ATOM     54  H   GLY A   4       5.891   7.958  17.696  0.00  0.00    +0.150 HD
BRANCH  51  55
ATOM     55  CA  VAL A   3       8.240   8.481  18.617  0.00  0.00    +0.149 C 
BRANCH  55  58
ATOM     56  C   GLY A   2       7.467   6.336  19.519  0.00  0.00    +0.243 C 
ATOM     57  O   GLY A   2       7.316   6.831  20.644  0.00  0.00    -0.273 OA
ATOM     58  N   VAL A   3       7.899   7.050  18.474  0.00  0.00    -0.297 N 
ATOM     59  H   VAL A   3       7.997   6.591  17.546  0.00  0.00    +0.150 HD
BRANCH  56  60
ATOM     60  CA  GLY A   2       7.172   4.851  19.302  0.00  0.00    +0.176 C 
BRANCH  60  63
ATOM     61  C   PHE A   1       8.918   3.986  17.791  0.00  0.00    +0.239 C 
ATOM     62  O   PHE A   1       9.820   4.180  18.587  0.00  0.00    -0.274 OA
ATOM     63  N   GLY A   2       7.643   4.273  18.045  0.00  0.00    -0.296 N 
ATOM     64  H   GLY A   2       6.940   4.074  17.305  0.00  0.00    +0.150 HD
BRANCH  61  65
ATOM     65  CA  PHE A   1       9.209   3.392  16.422  0.00  0.00    +0.149 C 
BRANCH  65  66
ATOM     66  N   PHE A   1       8.018   3.369  15.568  0.00  0.00    -0.238 NA
ATOM     67  H   PHE A   1       7.581   4.262  15.263  0.00  0.00    +0.142 HD
ENDBRANCH  65  66
BRANCH  65  68
ATOM     68  CB  PHE A   1      10.353   4.147  15.718  0.00  0.00    +0.053 C 
BRANCH  68  69
ATOM     69  CG  PHE A   1      10.768   3.539  14.398  0.00  0.00    -0.020 A 
ATOM     70  CD2 PHE A   1      11.806   2.596  14.341  0.00  0.00    -0.004 A 
ATOM     71  CE2 PHE A   1      12.188   2.034  13.128  0.00  0.00    -0.000 A 
ATOM     72  CZ  PHE A   1      11.532   2.406  11.961  0.00  0.00    -0.000 A 
ATOM     73  CE1 PHE A   1      10.510   3.339  12.009  0.00  0.00    -0.000 A 
ATOM     74  CD1 PHE A   1      10.129   3.893  13.217  0.00  0.00    -0.004 A 
ENDBRANCH  68  69
ENDBRANCH  65  68
ENDBRANCH  61  65
ENDBRANCH  60  63
ENDBRANCH  56  60
ENDBRANCH  55  58
BRANCH  55  75
ATOM     75  CB  VAL A   3       9.768   8.774  18.421  0.00  0.00    +0.027 C 
ATOM     76  CG2 VAL A   3      10.579   8.083  19.486  0.00  0.00    +0.002 C 
ATOM     77  CG1 VAL A   3      10.269   8.353  17.042  0.00  0.00    +0.002 C 
ENDBRANCH  55  75
ENDBRANCH  51  55
ENDBRANCH  50  53
ENDBRANCH  46  50
ENDBRANCH  45  47
BRANCH  45  78
ATOM     78  CB  PHE A   5       4.906  12.521  20.644  0.00  0.00    +0.055 C 
BRANCH  78  79
ATOM     79  CG  PHE A   5       4.802  13.849  21.331  0.00  0.00    -0.020 A 
ATOM     80  CD2 PHE A   5       5.965  14.551  21.707  0.00  0.00    -0.004 A 
ATOM     81  CE2 PHE A   5       5.878  15.794  22.325  0.00  0.00    -0.000 A 
ATOM     82  CZ  PHE A   5       4.623  16.351  22.589  0.00  0.00    -0.000 A 
ATOM     83  CE1 PHE A   5       3.465  15.659  22.226  0.00  0.00    -0.000 A 
ATOM     84  CD1 PHE A   5       3.562  14.416  21.604  0.00  0.00    -0.004 A 
ENDBRANCH  78  79
ENDBRANCH  45  78
ENDBRANCH   1  45
TORSDOF 31
REMARK  Name = ../refined-set-2016/4cwo/4cwo_pocket.pdb
REMARK  215 active torsions:
REMARK  status: ('A' for Active; 'I' for Inactive)
REMARK    1  A    between atoms: _1  and  _3
REMARK    2  A    between atoms: _3  and  _4
REMARK    3  A    between atoms: _3  and  _6
REMARK    4  A    between atoms: _6  and  _7
REMARK    5  A    between atoms: _13  and  _15
REMARK    6  A    between atoms: _15  and  _16
REMARK    7  A    between atoms: _15  and  _18
REMARK    8  A    between atoms: _18  and  _19
REMARK    9  A    between atoms: _22  and  _24
REMARK   10  A    between atoms: _24  and  _25
REMARK   11  A    between atoms: _24  and  _27
REMARK   12  A    between atoms: _27  and  _28
REMARK   13  A    between atoms: _34  and  _36
REMARK   14  A    between atoms: _36  and  _37
REMARK   15  A    between atoms: _36  and  _39
REMARK   16  A    between atoms: _39  and  _40
REMARK   17  A    between atoms: _43  and  _45
REMARK   18  A    between atoms: _45  and  _46
REMARK   19  A    between atoms: _45  and  _48
REMARK   20  A    between atoms: _48  and  _49
REMARK   21  A    between atoms: _49  and  _50
REMARK   22  A    between atoms: _53  and  _55
REMARK   23  A    between atoms: _55  and  _56
REMARK   24  A    between atoms: _55  and  _58
REMARK   25  A    between atoms: _58  and  _59
REMARK   26  A    between atoms: _62  and  _64
REMARK   27  A    between atoms: _64  and  _65
REMARK   28  A    between atoms: _64  and  _67
REMARK   29  A    between atoms: _67  and  _68
REMARK   30  A    between atoms: _71  and  _73
REMARK   31  A    between atoms: _73  and  _74
REMARK   32  A    between atoms: _73  and  _76
REMARK   33  A    between atoms: _76  and  _77
REMARK   34  A    between atoms: _79  and  _81
REMARK   35  A    between atoms: _81  and  _82
REMARK   36  A    between atoms: _81  and  _84
REMARK   37  A    between atoms: _84  and  _85
REMARK   38  A    between atoms: _90  and  _92
REMARK   39  A    between atoms: _92  and  _93
REMARK   40  A    between atoms: _92  and  _95
REMARK   41  A    between atoms: _95  and  _96
REMARK   42  A    between atoms: _98  and  _100
REMARK   43  A    between atoms: _100  and  _101
REMARK   44  A    between atoms: _100  and  _103
REMARK   45  A    between atoms: _103  and  _104
REMARK   46  A    between atoms: _106  and  _108
REMARK   47  A    between atoms: _108  and  _109
REMARK   48  A    between atoms: _108  and  _111
REMARK   49  A    between atoms: _111  and  _112
REMARK   50  A    between atoms: _115  and  _117
REMARK   51  A    between atoms: _117  and  _118
REMARK   52  A    between atoms: _121  and  _123
REMARK   53  A    between atoms: _123  and  _124
REMARK   54  A    between atoms: _123  and  _126
REMARK   55  A    between atoms: _126  and  _127
REMARK   56  A    between atoms: _130  and  _132
REMARK   57  A    between atoms: _132  and  _133
REMARK   58  A    between atoms: _132  and  _135
REMARK   59  A    between atoms: _135  and  _136
REMARK   60  A    between atoms: _139  and  _141
REMARK   61  A    between atoms: _141  and  _142
REMARK   62  A    between atoms: _141  and  _144
REMARK   63  A    between atoms: _147  and  _149
REMARK   64  A    between atoms: _149  and  _150
REMARK   65  A    between atoms: _149  and  _152
REMARK   66  A    between atoms: _152  and  _153
REMARK   67  A    between atoms: _156  and  _158
REMARK   68  A    between atoms: _158  and  _159
REMARK   69  A    between atoms: _158  and  _161
REMARK   70  A    between atoms: _161  and  _162
REMARK   71  A    between atoms: _165  and  _167
REMARK   72  A    between atoms: _167  and  _168
REMARK   73  A    between atoms: _170  and  _172
REMARK   74  A    between atoms: _172  and  _173
REMARK   75  A    between atoms: _172  and  _175
REMARK   76  A    between atoms: _175  and  _176
REMARK   77  A    between atoms: _179  and  _181
REMARK   78  A    between atoms: _181  and  _182
REMARK   79  A    between atoms: _184  and  _186
REMARK   80  A    between atoms: _186  and  _187
REMARK   81  A    between atoms: _186  and  _189
REMARK   82  A    between atoms: _189  and  _190
REMARK   83  A    between atoms: _190  and  _191
REMARK   84  A    between atoms: _193  and  _195
REMARK   85  A    between atoms: _195  and  _196
REMARK   86  A    between atoms: _195  and  _198
REMARK   87  A    between atoms: _198  and  _199
REMARK   88  A    between atoms: _202  and  _204
REMARK   89  A    between atoms: _204  and  _205
REMARK   90  A    between atoms: _204  and  _207
REMARK   91  A    between atoms: _207  and  _208
REMARK   92  A    between atoms: _211  and  _213
REMARK   93  A    between atoms: _213  and  _214
REMARK   94  A    between atoms: _213  and  _216
REMARK   95  A    between atoms: _216  and  _217
REMARK   96  A    between atoms: _220  and  _222
REMARK   97  A    between atoms: _222  and  _223
REMARK   98  A    between atoms: _222  and  _225
REMARK   99  A    between atoms: _225  and  _226
REMARK  100  A    between atoms: _231  and  _233
REMARK  101  A    between atoms: _233  and  _234
REMARK  102  A    between atoms: _233  and  _236
REMARK  103  A    between atoms: _236  and  _237
REMARK  104  A    between atoms: _240  and  _242
REMARK  105  A    between atoms: _242  and  _243
REMARK  106  A    between atoms: _245  and  _247
REMARK  107  A    between atoms: _247  and  _248
REMARK  108  A    between atoms: _247  and  _250
REMARK  109  A    between atoms: _250  and  _251
REMARK  110  A    between atoms: _254  and  _256
REMARK  111  A    between atoms: _256  and  _257
REMARK  112  A    between atoms: _260  and  _262
REMARK  113  A    between atoms: _262  and  _263
REMARK  114  A    between atoms: _262  and  _265
REMARK  115  A    between atoms: _265  and  _266
REMARK  116  A    between atoms: _269  and  _271
REMARK  117  A    between atoms: _271  and  _272
REMARK  118  A    between atoms: _271  and  _274
REMARK  119  A    between atoms: _274  and  _275
REMARK  120  A    between atoms: _281  and  _283
REMARK  121  A    between atoms: _283  and  _284
REMARK  122  A    between atoms: _286  and  _288
REMARK  123  A    between atoms: _288  and  _289
REMARK  124  A    between atoms: _288  and  _291
REMARK  125  A    between atoms: _294  and  _296
REMARK  126  A    between atoms: _296  and  _297
REMARK  127  A    between atoms: _299  and  _301
REMARK  128  A    between atoms: _301  and  _302
REMARK  129  A    between atoms: _301  and  _304
REMARK  130  A    between atoms: _304  and  _305
REMARK  131  A    between atoms: _311  and  _313
REMARK  132  A    between atoms: _313  and  _314
REMARK  133  A    between atoms: _313  and  _316
REMARK  134  A    between atoms: _316  and  _317
REMARK  135  A    between atoms: _322  and  _323
REMARK  136  A    between atoms: _325  and  _327
REMARK  137  A    between atoms: _327  and  _328
REMARK  138  A    between atoms: _327  and  _330
REMARK  139  A    between atoms: _330  and  _331
REMARK  140  A    between atoms: _333  and  _335
REMARK  141  A    between atoms: _335  and  _336
REMARK  142  A    between atoms: _339  and  _341
REMARK  143  A    between atoms: _341  and  _342
REMARK  144  A    between atoms: _341  and  _344
REMARK  145  A    between atoms: _344  and  _345
REMARK  146  A    between atoms: _350  and  _351
REMARK  147  A    between atoms: _353  and  _355
REMARK  148  A    between atoms: _355  and  _356
REMARK  149  A    between atoms: _355  and  _358
REMARK  150  A    between atoms: _361  and  _363
REMARK  151  A    between atoms: _363  and  _364
REMARK  152  A    between atoms: _363  and  _366
REMARK  153  A    between atoms: _366  and  _367
REMARK  154  A    between atoms: _370  and  _372
REMARK  155  A    between atoms: _372  and  _373
REMARK  156  A    between atoms: _372  and  _375
REMARK  157  A    between atoms: _378  and  _380
REMARK  158  A    between atoms: _380  and  _381
REMARK  159  A    between atoms: _380  and  _383
REMARK  160  A    between atoms: _383  and  _384
REMARK  161  A    between atoms: _387  and  _389
REMARK  162  A    between atoms: _389  and  _390
REMARK  163  A    between atoms: _389  and  _392
REMARK  164  A    between atoms: _392  and  _393
REMARK  165  A    between atoms: _396  and  _398
REMARK  166  A    between atoms: _398  and  _399
REMARK  167  A    between atoms: _398  and  _401
REMARK  168  A    between atoms: _401  and  _402
REMARK  169  A    between atoms: _402  and  _403
REMARK  170  A    between atoms: _403  and  _404
REMARK  171  A    between atoms: _404  and  _405
REMARK  172  A    between atoms: _409  and  _411
REMARK  173  A    between atoms: _411  and  _412
REMARK  174  A    between atoms: _411  and  _414
REMARK  175  A    between atoms: _414  and  _415
REMARK  176  A    between atoms: _425  and  _427
REMARK  177  A    between atoms: _427  and  _428
REMARK  178  A    between atoms: _427  and  _430
REMARK  179  A    between atoms: _430  and  _431
REMARK  180  A    between atoms: _431  and  _432
REMARK  181  A    between atoms: _435  and  _437
REMARK  182  A    between atoms: _437  and  _438
REMARK  183  A    between atoms: _437  and  _440
REMARK  184  A    between atoms: _440  and  _441
REMARK  185  A    between atoms: _443  and  _445
REMARK  186  A    between atoms: _445  and  _446
REMARK  187  A    between atoms: _445  and  _448
REMARK  188  A    between atoms: _448  and  _449
REMARK  189  A    between atoms: _455  and  _457
REMARK  190  A    between atoms: _457  and  _458
REMARK  191  A    between atoms: _457  and  _460
REMARK  192  A    between atoms: _460  and  _461
REMARK  193  A    between atoms: _464  and  _466
REMARK  194  A    between atoms: _466  and  _467
REMARK  195  A    between atoms: _466  and  _469
REMARK  196  A    between atoms: _472  and  _474
REMARK  197  A    between atoms: _474  and  _475
REMARK  198  A    between atoms: _477  and  _479
REMARK  199  A    between atoms: _479  and  _480
REMARK  200  A    between atoms: _479  and  _482
REMARK  201  A    between atoms: _482  and  _483
REMARK  202  A    between atoms: _486  and  _488
REMARK  203  A    between atoms: _488  and  _489
REMARK  204  A    between atoms: _488  and  _491
REMARK  205  A    between atoms: _491  and  _492
REMARK  206  A    between atoms: _492  and  _493
REMARK  207  A    between atoms: _493  and  _494
REMARK  208  A    between atoms: _494  and  _495
REMARK  209  A    between atoms: _499  and  _501
REMARK  210  A    between atoms: _501  and  _502
REMARK  211  A    between atoms: _501  and  _504
REMARK  212  A    between atoms: _507  and  _509
REMARK  213  A    between atoms: _509  and  _510
REMARK  214  A    between atoms: _509  and  _512
REMARK  215  A    between atoms: _512  and  _513
REMARK                            x       y       z     vdW  Elec       q    Type
REMARK                         _______ _______ _______ _____ _____    ______ ____
ROOT
ATOM      1  CA  ILE A   4      -1.589  20.179  29.508  0.00  0.00    +0.149 C 
ENDROOT
BRANCH   1   2
ATOM      2  C   ILE A   4      -2.069  18.759  29.827  0.00  0.00    +0.241 C 
ATOM      3  N   THR A   5      -1.745  18.259  31.016  0.00  0.00    -0.295 N 
ATOM      4  H   THR A   5      -1.280  18.865  31.722  0.00  0.00    +0.150 HD
ATOM      5  O   ILE A   4      -2.753  18.125  28.995  0.00  0.00    -0.273 OA
BRANCH   3   6
ATOM      6  CA  THR A   5      -2.037  16.869  31.336  0.00  0.00    +0.176 C 
BRANCH   6   7
ATOM      7  C   THR A   5      -2.328  16.656  32.822  0.00  0.00    +0.243 C 
ATOM      8  O   THR A   5      -1.746  17.317  33.673  0.00  0.00    -0.273 OA
ATOM      9  N   LYS A   6      -3.261  15.753  33.111  0.00  0.00    -0.298 N 
ATOM     10  H   LYS A   6      -3.741  15.260  32.331  0.00  0.00    +0.150 HD
BRANCH   9  11
ATOM     11  CA  LYS A   6      -3.634  15.430  34.482  0.00  0.00    +0.137 C 
BRANCH  11  12
ATOM     12  C   LYS A   6      -3.794  13.914  34.657  0.00  0.00    +0.227 C 
ATOM     13  O   LYS A   6      -4.616  13.281  33.987  0.00  0.00    -0.286 OA
ENDBRANCH  11  12
BRANCH  11  14
ATOM     14  CB  LYS A   6      -4.919  16.179  34.884  0.00  0.00    +0.028 C 
BRANCH  14  15
ATOM     15  CG  LYS A   6      -5.526  15.733  36.216  0.00  0.00    -0.000 C 
BRANCH  15  16
ATOM     16  CD  LYS A   6      -4.922  16.423  37.422  0.00  0.00    -0.024 C 
BRANCH  16  17
ATOM     17  CE  LYS A   6      -5.782  16.186  38.667  0.00  0.00    -0.086 C 
BRANCH  17  18
ATOM     18  NZ  LYS A   6      -5.520  14.849  39.292  0.00  0.00    +0.380 N 
ATOM     19  HZ1 LYS A   6      -6.125  14.735  40.130  0.00  0.00    -0.089 HD
ATOM     20  HZ2 LYS A   6      -4.521  14.789  39.574  0.00  0.00    -0.089 HD
ATOM     21  HZ3 LYS A   6      -5.733  14.098  38.604  0.00  0.00    -0.089 HD
ENDBRANCH  17  18
ENDBRANCH  16  17
ENDBRANCH  15  16
ENDBRANCH  14  15
ENDBRANCH  11  14
ENDBRANCH   9  11
ENDBRANCH   6   7
BRANCH   6  22
ATOM     22  CB  THR A   5      -0.909  15.916  30.849  0.00  0.00    +0.137 C 
ATOM     23  CG2 THR A   5       0.388  16.213  31.559  0.00  0.00    +0.034 C 
BRANCH  22  24
ATOM     24  OG1 THR A   5      -1.290  14.551  31.081  0.00  0.00    -0.382 OA
ATOM     25  HG1 THR A   5      -2.123  14.353  30.584  0.00  0.00    +0.210 HD
ENDBRANCH  22  24
ENDBRANCH   6  22
ENDBRANCH   3   6
ENDBRANCH   1   2
BRANCH   1  28
ATOM     26  C   VAL A   3       0.349  20.030  27.973  0.00  0.00    +0.241 C 
ATOM     27  O   VAL A   3       1.209  20.170  28.845  0.00  0.00    -0.273 OA
ATOM     28  N   ILE A   4      -0.971  20.123  28.188  0.00  0.00    -0.297 N 
ATOM     29  H   ILE A   4      -1.596  20.158  27.358  0.00  0.00    +0.150 HD
BRANCH  26  30
ATOM     30  CA  VAL A   3       0.777  19.778  26.542  0.00  0.00    +0.149 C 
BRANCH  30  32
ATOM     31  C   THR A   2       1.193  21.604  24.978  0.00  0.00    +0.243 C 
ATOM     32  N   VAL A   3       1.537  20.952  26.084  0.00  0.00    -0.297 N 
ATOM     33  H   VAL A   3       2.357  21.277  26.635  0.00  0.00    +0.150 HD
ATOM     34  O   THR A   2       0.238  21.256  24.277  0.00  0.00    -0.273 OA
BRANCH  31  35
ATOM     35  CA  THR A   2       2.009  22.852  24.599  0.00  0.00    +0.176 C 
BRANCH  35  38
ATOM     36  C   VAL A   1       3.534  22.771  22.658  0.00  0.00    +0.238 C 
ATOM     37  O   VAL A   1       4.532  22.853  23.338  0.00  0.00    -0.274 OA
ATOM     38  N   THR A   2       2.298  22.803  23.166  0.00  0.00    -0.295 N 
ATOM     39  H   THR A   2       1.496  22.792  22.504  0.00  0.00    +0.150 HD
BRANCH  36  40
ATOM     40  CA  VAL A   1       3.665  22.601  21.155  0.00  0.00    +0.145 C 
BRANCH  40  41
ATOM     41  CB  VAL A   1       4.051  21.116  20.857  0.00  0.00    +0.025 C 
ATOM     42  CG2 VAL A   1       2.956  20.177  21.352  0.00  0.00    +0.002 C 
ATOM     43  CG1 VAL A   1       4.270  20.886  19.364  0.00  0.00    +0.002 C 
ENDBRANCH  40  41
BRANCH  40  44
ATOM     44  N   VAL A   1       4.630  23.565  20.591  0.00  0.00    -0.238 NA
ATOM     45  H   VAL A   1       5.594  23.590  20.980  0.00  0.00    +0.142 HD
ENDBRANCH  40  44
ENDBRANCH  36  40
ENDBRANCH  35  38
BRANCH  35  46
ATOM     46  CB  THR A   2       1.154  24.112  24.966  0.00  0.00    +0.137 C 
ATOM     47  CG2 THR A   2       0.901  24.210  26.473  0.00  0.00    +0.034 C 
BRANCH  46  48
ATOM     48  OG1 THR A   2       1.815  25.300  24.528  0.00  0.00    -0.382 OA
ATOM     49  HG1 THR A   2       2.698  25.367  24.970  0.00  0.00    +0.210 HD
ENDBRANCH  46  48
ENDBRANCH  35  46
ENDBRANCH  31  35
ENDBRANCH  30  32
BRANCH  30  50
ATOM     50  CB  VAL A   3       1.613  18.476  26.486  0.00  0.00    +0.027 C 
ATOM     51  CG2 VAL A   3       0.816  17.292  27.025  0.00  0.00    +0.002 C 
ATOM     52  CG1 VAL A   3       2.102  18.207  25.072  0.00  0.00    +0.002 C 
ENDBRANCH  30  50
ENDBRANCH  26  30
ENDBRANCH   1  28
BRANCH   1  53
ATOM     53  CB  ILE A   4      -2.835  21.110  29.510  0.00  0.00    +0.027 C 
ATOM     54  CG2 ILE A   4      -3.344  21.399  30.927  0.00  0.00    +0.002 C 
BRANCH  53  55
ATOM     55  CG1 ILE A   4      -2.598  22.405  28.709  0.00  0.00    +0.002 C 
ATOM     56  CD1 ILE A   4      -1.555  23.316  29.293  0.00  0.00    +0.000 C 
ENDBRANCH  53  55
ENDBRANCH   1  53
TORSDOF 25
REMARK  Name = ../refined-set-2016/4cwo/4cwo_pocket.pdb
REMARK  215 active torsions:
REMARK  status: ('A' for Active; 'I' for Inactive)
REMARK    1  A    between atoms: _1  and  _3
REMARK    2  A    between atoms: _3  and  _4
REMARK    3  A    between atoms: _3  and  _6
REMARK    4  A    between atoms: _6  and  _7
REMARK    5  A    between atoms: _13  and  _15
REMARK    6  A    between atoms: _15  and  _16
REMARK    7  A    between atoms: _15  and  _18
REMARK    8  A    between atoms: _18  and  _19
REMARK    9  A    between atoms: _22  and  _24
REMARK   10  A    between atoms: _24  and  _25
REMARK   11  A    between atoms: _24  and  _27
REMARK   12  A    between atoms: _27  and  _28
REMARK   13  A    between atoms: _34  and  _36
REMARK   14  A    between atoms: _36  and  _37
REMARK   15  A    between atoms: _36  and  _39
REMARK   16  A    between atoms: _39  and  _40
REMARK   17  A    between atoms: _43  and  _45
REMARK   18  A    between atoms: _45  and  _46
REMARK   19  A    between atoms: _45  and  _48
REMARK   20  A    between atoms: _48  and  _49
REMARK   21  A    between atoms: _49  and  _50
REMARK   22  A    between atoms: _53  and  _55
REMARK   23  A    between atoms: _55  and  _56
REMARK   24  A    between atoms: _55  and  _58
REMARK   25  A    between atoms: _58  and  _59
REMARK   26  A    between atoms: _62  and  _64
REMARK   27  A    between atoms: _64  and  _65
REMARK   28  A    between atoms: _64  and  _67
REMARK   29  A    between atoms: _67  and  _68
REMARK   30  A    between atoms: _71  and  _73
REMARK   31  A    between atoms: _73  and  _74
REMARK   32  A    between atoms: _73  and  _76
REMARK   33  A    between atoms: _76  and  _77
REMARK   34  A    between atoms: _79  and  _81
REMARK   35  A    between atoms: _81  and  _82
REMARK   36  A    between atoms: _81  and  _84
REMARK   37  A    between atoms: _84  and  _85
REMARK   38  A    between atoms: _90  and  _92
REMARK   39  A    between atoms: _92  and  _93
REMARK   40  A    between atoms: _92  and  _95
REMARK   41  A    between atoms: _95  and  _96
REMARK   42  A    between atoms: _98  and  _100
REMARK   43  A    between atoms: _100  and  _101
REMARK   44  A    between atoms: _100  and  _103
REMARK   45  A    between atoms: _103  and  _104
REMARK   46  A    between atoms: _106  and  _108
REMARK   47  A    between atoms: _108  and  _109
REMARK   48  A    between atoms: _108  and  _111
REMARK   49  A    between atoms: _111  and  _112
REMARK   50  A    between atoms: _115  and  _117
REMARK   51  A    between atoms: _117  and  _118
REMARK   52  A    between atoms: _121  and  _123
REMARK   53  A    between atoms: _123  and  _124
REMARK   54  A    between atoms: _123  and  _126
REMARK   55  A    between atoms: _126  and  _127
REMARK   56  A    between atoms: _130  and  _132
REMARK   57  A    between atoms: _132  and  _133
REMARK   58  A    between atoms: _132  and  _135
REMARK   59  A    between atoms: _135  and  _136
REMARK   60  A    between atoms: _139  and  _141
REMARK   61  A    between atoms: _141  and  _142
REMARK   62  A    between atoms: _141  and  _144
REMARK   63  A    between atoms: _147  and  _149
REMARK   64  A    between atoms: _149  and  _150
REMARK   65  A    between atoms: _149  and  _152
REMARK   66  A    between atoms: _152  and  _153
REMARK   67  A    between atoms: _156  and  _158
REMARK   68  A    between atoms: _158  and  _159
REMARK   69  A    between atoms: _158  and  _161
REMARK   70  A    between atoms: _161  and  _162
REMARK   71  A    between atoms: _165  and  _167
REMARK   72  A    between atoms: _167  and  _168
REMARK   73  A    between atoms: _170  and  _172
REMARK   74  A    between atoms: _172  and  _173
REMARK   75  A    between atoms: _172  and  _175
REMARK   76  A    between atoms: _175  and  _176
REMARK   77  A    between atoms: _179  and  _181
REMARK   78  A    between atoms: _181  and  _182
REMARK   79  A    between atoms: _184  and  _186
REMARK   80  A    between atoms: _186  and  _187
REMARK   81  A    between atoms: _186  and  _189
REMARK   82  A    between atoms: _189  and  _190
REMARK   83  A    between atoms: _190  and  _191
REMARK   84  A    between atoms: _193  and  _195
REMARK   85  A    between atoms: _195  and  _196
REMARK   86  A    between atoms: _195  and  _198
REMARK   87  A    between atoms: _198  and  _199
REMARK   88  A    between atoms: _202  and  _204
REMARK   89  A    between atoms: _204  and  _205
REMARK   90  A    between atoms: _204  and  _207
REMARK   91  A    between atoms: _207  and  _208
REMARK   92  A    between atoms: _211  and  _213
REMARK   93  A    between atoms: _213  and  _214
REMARK   94  A    between atoms: _213  and  _216
REMARK   95  A    between atoms: _216  and  _217
REMARK   96  A    between atoms: _220  and  _222
REMARK   97  A    between atoms: _222  and  _223
REMARK   98  A    between atoms: _222  and  _225
REMARK   99  A    between atoms: _225  and  _226
REMARK  100  A    between atoms: _231  and  _233
REMARK  101  A    between atoms: _233  and  _234
REMARK  102  A    between atoms: _233  and  _236
REMARK  103  A    between atoms: _236  and  _237
REMARK  104  A    between atoms: _240  and  _242
REMARK  105  A    between atoms: _242  and  _243
REMARK  106  A    between atoms: _245  and  _247
REMARK  107  A    between atoms: _247  and  _248
REMARK  108  A    between atoms: _247  and  _250
REMARK  109  A    between atoms: _250  and  _251
REMARK  110  A    between atoms: _254  and  _256
REMARK  111  A    between atoms: _256  and  _257
REMARK  112  A    between atoms: _260  and  _262
REMARK  113  A    between atoms: _262  and  _263
REMARK  114  A    between atoms: _262  and  _265
REMARK  115  A    between atoms: _265  and  _266
REMARK  116  A    between atoms: _269  and  _271
REMARK  117  A    between atoms: _271  and  _272
REMARK  118  A    between atoms: _271  and  _274
REMARK  119  A    between atoms: _274  and  _275
REMARK  120  A    between atoms: _281  and  _283
REMARK  121  A    between atoms: _283  and  _284
REMARK  122  A    between atoms: _286  and  _288
REMARK  123  A    between atoms: _288  and  _289
REMARK  124  A    between atoms: _288  and  _291
REMARK  125  A    between atoms: _294  and  _296
REMARK  126  A    between atoms: _296  and  _297
REMARK  127  A    between atoms: _299  and  _301
REMARK  128  A    between atoms: _301  and  _302
REMARK  129  A    between atoms: _301  and  _304
REMARK  130  A    between atoms: _304  and  _305
REMARK  131  A    between atoms: _311  and  _313
REMARK  132  A    between atoms: _313  and  _314
REMARK  133  A    between atoms: _313  and  _316
REMARK  134  A    between atoms: _316  and  _317
REMARK  135  A    between atoms: _322  and  _323
REMARK  136  A    between atoms: _325  and  _327
REMARK  137  A    between atoms: _327  and  _328
REMARK  138  A    between atoms: _327  and  _330
REMARK  139  A    between atoms: _330  and  _331
REMARK  140  A    between atoms: _333  and  _335
REMARK  141  A    between atoms: _335  and  _336
REMARK  142  A    between atoms: _339  and  _341
REMARK  143  A    between atoms: _341  and  _342
REMARK  144  A    between atoms: _341  and  _344
REMARK  145  A    between atoms: _344  and  _345
REMARK  146  A    between atoms: _350  and  _351
REMARK  147  A    between atoms: _353  and  _355
REMARK  148  A    between atoms: _355  and  _356
REMARK  149  A    between atoms: _355  and  _358
REMARK  150  A    between atoms: _361  and  _363
REMARK  151  A    between atoms: _363  and  _364
REMARK  152  A    between atoms: _363  and  _366
REMARK  153  A    between atoms: _366  and  _367
REMARK  154  A    between atoms: _370  and  _372
REMARK  155  A    between atoms: _372  and  _373
REMARK  156  A    between atoms: _372  and  _375
REMARK  157  A    between atoms: _378  and  _380
REMARK  158  A    between atoms: _380  and  _381
REMARK  159  A    between atoms: _380  and  _383
REMARK  160  A    between atoms: _383  and  _384
REMARK  161  A    between atoms: _387  and  _389
REMARK  162  A    between atoms: _389  and  _390
REMARK  163  A    between atoms: _389  and  _392
REMARK  164  A    between atoms: _392  and  _393
REMARK  165  A    between atoms: _396  and  _398
REMARK  166  A    between atoms: _398  and  _399
REMARK  167  A    between atoms: _398  and  _401
REMARK  168  A    between atoms: _401  and  _402
REMARK  169  A    between atoms: _402  and  _403
REMARK  170  A    between atoms: _403  and  _404
REMARK  171  A    between atoms: _404  and  _405
REMARK  172  A    between atoms: _409  and  _411
REMARK  173  A    between atoms: _411  and  _412
REMARK  174  A    between atoms: _411  and  _414
REMARK  175  A    between atoms: _414  and  _415
REMARK  176  A    between atoms: _425  and  _427
REMARK  177  A    between atoms: _427  and  _428
REMARK  178  A    between atoms: _427  and  _430
REMARK  179  A    between atoms: _430  and  _431
REMARK  180  A    between atoms: _431  and  _432
REMARK  181  A    between atoms: _435  and  _437
REMARK  182  A    between atoms: _437  and  _438
REMARK  183  A    between atoms: _437  and  _440
REMARK  184  A    between atoms: _440  and  _441
REMARK  185  A    between atoms: _443  and  _445
REMARK  186  A    between atoms: _445  and  _446
REMARK  187  A    between atoms: _445  and  _448
REMARK  188  A    between atoms: _448  and  _449
REMARK  189  A    between atoms: _455  and  _457
REMARK  190  A    between atoms: _457  and  _458
REMARK  191  A    between atoms: _457  and  _460
REMARK  192  A    between atoms: _460  and  _461
REMARK  193  A    between atoms: _464  and  _466
REMARK  194  A    between atoms: _466  and  _467
REMARK  195  A    between atoms: _466  and  _469
REMARK  196  A    between atoms: _472  and  _474
REMARK  197  A    between atoms: _474  and  _475
REMARK  198  A    between atoms: _477  and  _479
REMARK  199  A    between atoms: _479  and  _480
REMARK  200  A    between atoms: _479  and  _482
REMARK  201  A    between atoms: _482  and  _483
REMARK  202  A    between atoms: _486  and  _488
REMARK  203  A    between atoms: _488  and  _489
REMARK  204  A    between atoms: _488  and  _491
REMARK  205  A    between atoms: _491  and  _492
REMARK  206  A    between atoms: _492  and  _493
REMARK  207  A    between atoms: _493  and  _494
REMARK  208  A    between atoms: _494  and  _495
REMARK  209  A    between atoms: _499  and  _501
REMARK  210  A    between atoms: _501  and  _502
REMARK  211  A    between atoms: _501  and  _504
REMARK  212  A    between atoms: _507  and  _509
REMARK  213  A    between atoms: _509  and  _510
REMARK  214  A    between atoms: _509  and  _512
REMARK  215  A    between atoms: _512  and  _513
REMARK                            x       y       z     vdW  Elec       q    Type
REMARK                         _______ _______ _______ _____ _____    ______ ____
ROOT
ATOM      1  C   TRP A   1       4.806  21.887  28.006  0.00  0.00    +0.239 C 
ATOM      2  N   GLU A   2       5.947  22.393  27.555  0.00  0.00    -0.297 N 
ATOM      3  H   GLU A   2       6.844  22.160  28.027  0.00  0.00    +0.150 HD
ATOM      4  O   TRP A   1       3.741  22.070  27.433  0.00  0.00    -0.274 OA
ENDROOT
BRANCH   1   5
ATOM      5  CA  TRP A   1       4.844  21.060  29.233  0.00  0.00    +0.149 C 
BRANCH   5   6
ATOM      6  N   TRP A   1       3.555  21.292  29.880  0.00  0.00    -0.238 NA
ATOM      7  H   TRP A   1       2.706  20.917  29.411  0.00  0.00    +0.142 HD
ENDBRANCH   5   6
BRANCH   5   8
ATOM      8  CB  TRP A   1       4.935  19.593  28.840  0.00  0.00    +0.054 C 
BRANCH   8   9
ATOM      9  CG  TRP A   1       6.135  19.145  28.024  0.00  0.00    -0.002 A 
ATOM     10  CD1 TRP A   1       7.265  18.479  28.486  0.00  0.00    +0.068 A 
ATOM     11  NE1 TRP A   1       8.122  18.210  27.456  0.00  0.00    -0.352 N 
ATOM     12  HE1 TRP A   1       9.042  17.736  27.563  0.00  0.00    +0.166 HD
ATOM     13  CE2 TRP A   1       7.613  18.644  26.275  0.00  0.00    +0.056 A 
ATOM     14  CZ2 TRP A   1       8.117  18.561  24.987  0.00  0.00    +0.017 A 
ATOM     15  CH2 TRP A   1       7.343  19.107  23.956  0.00  0.00    +0.001 A 
ATOM     16  CZ3 TRP A   1       6.106  19.704  24.208  0.00  0.00    +0.000 A 
ATOM     17  CE3 TRP A   1       5.589  19.782  25.505  0.00  0.00    +0.001 A 
ATOM     18  CD2 TRP A   1       6.334  19.258  26.559  0.00  0.00    +0.013 A 
ENDBRANCH   8   9
ENDBRANCH   5   8
ENDBRANCH   1   5
BRANCH   2  19
ATOM     19  CA  GLU A   2       5.938  23.272  26.402  0.00  0.00    +0.149 C 
BRANCH  19  20
ATOM     20  C   GLU A   2       7.292  23.315  25.763  0.00  0.00    +0.241 C 
ATOM     21  O   GLU A   2       8.299  23.356  26.478  0.00  0.00    -0.273 OA
ATOM     22  N   SER A   3       7.326  23.314  24.424  0.00  0.00    -0.296 N 
ATOM     23  H   SER A   3       6.441  23.204  23.889  0.00  0.00    +0.150 HD
BRANCH  22  24
ATOM     24  CA  SER A   3       8.587  23.465  23.703  0.00  0.00    +0.166 C 
BRANCH  24  25
ATOM     25  C   SER A   3       8.424  24.063  22.305  0.00  0.00    +0.229 C 
ATOM     26  O   SER A   3       7.506  23.708  21.558  0.00  0.00    -0.286 OA
ENDBRANCH  24  25
BRANCH  24  27
ATOM     27  CB  SER A   3       9.348  22.128  23.627  0.00  0.00    +0.165 C 
BRANCH  27  28
ATOM     28  OG  SER A   3      10.634  22.296  23.032  0.00  0.00    -0.380 OA
ATOM     29  H   SER A   3      11.166  22.931  23.573  0.00  0.00    +0.211 HD
ENDBRANCH  27  28
ENDBRANCH  24  27
ENDBRANCH  22  24
ENDBRANCH  19  20
BRANCH  19  30
ATOM     30  CB  GLU A   2       5.541  24.692  26.823  0.00  0.00    +0.041 C 
BRANCH  30  31
ATOM     31  CG  GLU A   2       5.350  25.641  25.656  0.00  0.00    +0.116 C 
BRANCH  31  32
ATOM     32  CD  GLU A   2       4.689  26.940  26.073  0.00  0.00    +0.365 C 
ATOM     33  OE2 GLU A   2       5.383  27.800  26.646  0.00  0.00    -0.246 OA
ATOM     34  OE1 GLU A   2       3.477  27.110  25.812  0.00  0.00    -0.246 OA
ENDBRANCH  31  32
ENDBRANCH  30  31
ENDBRANCH  19  30
ENDBRANCH   2  19
TORSDOF 13
REMARK  Name = ../refined-set-2016/4cwo/4cwo_pocket.pdb
REMARK  215 active torsions:
REMARK  status: ('A' for Active; 'I' for Inactive)
REMARK    1  A    between atoms: _1  and  _3
REMARK    2  A    between atoms: _3  and  _4
REMARK    3  A    between atoms: _3  and  _6
REMARK    4  A    between atoms: _6  and  _7
REMARK    5  A    between atoms: _13  and  _15
REMARK    6  A    between atoms: _15  and  _16
REMARK    7  A    between atoms: _15  and  _18
REMARK    8  A    between atoms: _18  and  _19
REMARK    9  A    between atoms: _22  and  _24
REMARK   10  A    between atoms: _24  and  _25
REMARK   11  A    between atoms: _24  and  _27
REMARK   12  A    between atoms: _27  and  _28
REMARK   13  A    between atoms: _34  and  _36
REMARK   14  A    between atoms: _36  and  _37
REMARK   15  A    between atoms: _36  and  _39
REMARK   16  A    between atoms: _39  and  _40
REMARK   17  A    between atoms: _43  and  _45
REMARK   18  A    between atoms: _45  and  _46
REMARK   19  A    between atoms: _45  and  _48
REMARK   20  A    between atoms: _48  and  _49
REMARK   21  A    between atoms: _49  and  _50
REMARK   22  A    between atoms: _53  and  _55
REMARK   23  A    between atoms: _55  and  _56
REMARK   24  A    between atoms: _55  and  _58
REMARK   25  A    between atoms: _58  and  _59
REMARK   26  A    between atoms: _62  and  _64
REMARK   27  A    between atoms: _64  and  _65
REMARK   28  A    between atoms: _64  and  _67
REMARK   29  A    between atoms: _67  and  _68
REMARK   30  A    between atoms: _71  and  _73
REMARK   31  A    between atoms: _73  and  _74
REMARK   32  A    between atoms: _73  and  _76
REMARK   33  A    between atoms: _76  and  _77
REMARK   34  A    between atoms: _79  and  _81
REMARK   35  A    between atoms: _81  and  _82
REMARK   36  A    between atoms: _81  and  _84
REMARK   37  A    between atoms: _84  and  _85
REMARK   38  A    between atoms: _90  and  _92
REMARK   39  A    between atoms: _92  and  _93
REMARK   40  A    between atoms: _92  and  _95
REMARK   41  A    between atoms: _95  and  _96
REMARK   42  A    between atoms: _98  and  _100
REMARK   43  A    between atoms: _100  and  _101
REMARK   44  A    between atoms: _100  and  _103
REMARK   45  A    between atoms: _103  and  _104
REMARK   46  A    between atoms: _106  and  _108
REMARK   47  A    between atoms: _108  and  _109
REMARK   48  A    between atoms: _108  and  _111
REMARK   49  A    between atoms: _111  and  _112
REMARK   50  A    between atoms: _115  and  _117
REMARK   51  A    between atoms: _117  and  _118
REMARK   52  A    between atoms: _121  and  _123
REMARK   53  A    between atoms: _123  and  _124
REMARK   54  A    between atoms: _123  and  _126
REMARK   55  A    between atoms: _126  and  _127
REMARK   56  A    between atoms: _130  and  _132
REMARK   57  A    between atoms: _132  and  _133
REMARK   58  A    between atoms: _132  and  _135
REMARK   59  A    between atoms: _135  and  _136
REMARK   60  A    between atoms: _139  and  _141
REMARK   61  A    between atoms: _141  and  _142
REMARK   62  A    between atoms: _141  and  _144
REMARK   63  A    between atoms: _147  and  _149
REMARK   64  A    between atoms: _149  and  _150
REMARK   65  A    between atoms: _149  and  _152
REMARK   66  A    between atoms: _152  and  _153
REMARK   67  A    between atoms: _156  and  _158
REMARK   68  A    between atoms: _158  and  _159
REMARK   69  A    between atoms: _158  and  _161
REMARK   70  A    between atoms: _161  and  _162
REMARK   71  A    between atoms: _165  and  _167
REMARK   72  A    between atoms: _167  and  _168
REMARK   73  A    between atoms: _170  and  _172
REMARK   74  A    between atoms: _172  and  _173
REMARK   75  A    between atoms: _172  and  _175
REMARK   76  A    between atoms: _175  and  _176
REMARK   77  A    between atoms: _179  and  _181
REMARK   78  A    between atoms: _181  and  _182
REMARK   79  A    between atoms: _184  and  _186
REMARK   80  A    between atoms: _186  and  _187
REMARK   81  A    between atoms: _186  and  _189
REMARK   82  A    between atoms: _189  and  _190
REMARK   83  A    between atoms: _190  and  _191
REMARK   84  A    between atoms: _193  and  _195
REMARK   85  A    between atoms: _195  and  _196
REMARK   86  A    between atoms: _195  and  _198
REMARK   87  A    between atoms: _198  and  _199
REMARK   88  A    between atoms: _202  and  _204
REMARK   89  A    between atoms: _204  and  _205
REMARK   90  A    between atoms: _204  and  _207
REMARK   91  A    between atoms: _207  and  _208
REMARK   92  A    between atoms: _211  and  _213
REMARK   93  A    between atoms: _213  and  _214
REMARK   94  A    between atoms: _213  and  _216
REMARK   95  A    between atoms: _216  and  _217
REMARK   96  A    between atoms: _220  and  _222
REMARK   97  A    between atoms: _222  and  _223
REMARK   98  A    between atoms: _222  and  _225
REMARK   99  A    between atoms: _225  and  _226
REMARK  100  A    between atoms: _231  and  _233
REMARK  101  A    between atoms: _233  and  _234
REMARK  102  A    between atoms: _233  and  _236
REMARK  103  A    between atoms: _236  and  _237
REMARK  104  A    between atoms: _240  and  _242
REMARK  105  A    between atoms: _242  and  _243
REMARK  106  A    between atoms: _245  and  _247
REMARK  107  A    between atoms: _247  and  _248
REMARK  108  A    between atoms: _247  and  _250
REMARK  109  A    between atoms: _250  and  _251
REMARK  110  A    between atoms: _254  and  _256
REMARK  111  A    between atoms: _256  and  _257
REMARK  112  A    between atoms: _260  and  _262
REMARK  113  A    between atoms: _262  and  _263
REMARK  114  A    between atoms: _262  and  _265
REMARK  115  A    between atoms: _265  and  _266
REMARK  116  A    between atoms: _269  and  _271
REMARK  117  A    between atoms: _271  and  _272
REMARK  118  A    between atoms: _271  and  _274
REMARK  119  A    between atoms: _274  and  _275
REMARK  120  A    between atoms: _281  and  _283
REMARK  121  A    between atoms: _283  and  _284
REMARK  122  A    between atoms: _286  and  _288
REMARK  123  A    between atoms: _288  and  _289
REMARK  124  A    between atoms: _288  and  _291
REMARK  125  A    between atoms: _294  and  _296
REMARK  126  A    between atoms: _296  and  _297
REMARK  127  A    between atoms: _299  and  _301
REMARK  128  A    between atoms: _301  and  _302
REMARK  129  A    between atoms: _301  and  _304
REMARK  130  A    between atoms: _304  and  _305
REMARK  131  A    between atoms: _311  and  _313
REMARK  132  A    between atoms: _313  and  _314
REMARK  133  A    between atoms: _313  and  _316
REMARK  134  A    between atoms: _316  and  _317
REMARK  135  A    between atoms: _322  and  _323
REMARK  136  A    between atoms: _325  and  _327
REMARK  137  A    between atoms: _327  and  _328
REMARK  138  A    between atoms: _327  and  _330
REMARK  139  A    between atoms: _330  and  _331
REMARK  140  A    between atoms: _333  and  _335
REMARK  141  A    between atoms: _335  and  _336
REMARK  142  A    between atoms: _339  and  _341
REMARK  143  A    between atoms: _341  and  _342
REMARK  144  A    between atoms: _341  and  _344
REMARK  145  A    between atoms: _344  and  _345
REMARK  146  A    between atoms: _350  and  _351
REMARK  147  A    between atoms: _353  and  _355
REMARK  148  A    between atoms: _355  and  _356
REMARK  149  A    between atoms: _355  and  _358
REMARK  150  A    between atoms: _361  and  _363
REMARK  151  A    between atoms: _363  and  _364
REMARK  152  A    between atoms: _363  and  _366
REMARK  153  A    between atoms: _366  and  _367
REMARK  154  A    between atoms: _370  and  _372
REMARK  155  A    between atoms: _372  and  _373
REMARK  156  A    between atoms: _372  and  _375
REMARK  157  A    between atoms: _378  and  _380
REMARK  158  A    between atoms: _380  and  _381
REMARK  159  A    between atoms: _380  and  _383
REMARK  160  A    between atoms: _383  and  _384
REMARK  161  A    between atoms: _387  and  _389
REMARK  162  A    between atoms: _389  and  _390
REMARK  163  A    between atoms: _389  and  _392
REMARK  164  A    between atoms: _392  and  _393
REMARK  165  A    between atoms: _396  and  _398
REMARK  166  A    between atoms: _398  and  _399
REMARK  167  A    between atoms: _398  and  _401
REMARK  168  A    between atoms: _401  and  _402
REMARK  169  A    between atoms: _402  and  _403
REMARK  170  A    between atoms: _403  and  _404
REMARK  171  A    between atoms: _404  and  _405
REMARK  172  A    between atoms: _409  and  _411
REMARK  173  A    between atoms: _411  and  _412
REMARK  174  A    between atoms: _411  and  _414
REMARK  175  A    between atoms: _414  and  _415
REMARK  176  A    between atoms: _425  and  _427
REMARK  177  A    between atoms: _427  and  _428
REMARK  178  A    between atoms: _427  and  _430
REMARK  179  A    between atoms: _430  and  _431
REMARK  180  A    between atoms: _431  and  _432
REMARK  181  A    between atoms: _435  and  _437
REMARK  182  A    between atoms: _437  and  _438
REMARK  183  A    between atoms: _437  and  _440
REMARK  184  A    between atoms: _440  and  _441
REMARK  185  A    between atoms: _443  and  _445
REMARK  186  A    between atoms: _445  and  _446
REMARK  187  A    between atoms: _445  and  _448
REMARK  188  A    between atoms: _448  and  _449
REMARK  189  A    between atoms: _455  and  _457
REMARK  190  A    between atoms: _457  and  _458
REMARK  191  A    between atoms: _457  and  _460
REMARK  192  A    between atoms: _460  and  _461
REMARK  193  A    between atoms: _464  and  _466
REMARK  194  A    between atoms: _466  and  _467
REMARK  195  A    between atoms: _466  and  _469
REMARK  196  A    between atoms: _472  and  _474
REMARK  197  A    between atoms: _474  and  _475
REMARK  198  A    between atoms: _477  and  _479
REMARK  199  A    between atoms: _479  and  _480
REMARK  200  A    between atoms: _479  and  _482
REMARK  201  A    between atoms: _482  and  _483
REMARK  202  A    between atoms: _486  and  _488
REMARK  203  A    between atoms: _488  and  _489
REMARK  204  A    between atoms: _488  and  _491
REMARK  205  A    between atoms: _491  and  _492
REMARK  206  A    between atoms: _492  and  _493
REMARK  207  A    between atoms: _493  and  _494
REMARK  208  A    between atoms: _494  and  _495
REMARK  209  A    between atoms: _499  and  _501
REMARK  210  A    between atoms: _501  and  _502
REMARK  211  A    between atoms: _501  and  _504
REMARK  212  A    between atoms: _507  and  _509
REMARK  213  A    between atoms: _509  and  _510
REMARK  214  A    between atoms: _509  and  _512
REMARK  215  A    between atoms: _512  and  _513
REMARK                            x       y       z     vdW  Elec       q    Type
REMARK                         _______ _______ _______ _____ _____    ______ ____
ROOT
ATOM      1  CA  THR A   2       9.632  23.803  30.094  0.00  0.00    +0.176 C 
ENDROOT
BRANCH   1   4
ATOM      2  C   PHE A   1      11.200  22.926  28.450  0.00  0.00    +0.239 C 
ATOM      3  O   PHE A   1      12.137  22.951  29.266  0.00  0.00    -0.274 OA
ATOM      4  N   THR A   2       9.973  23.362  28.745  0.00  0.00    -0.295 N 
ATOM      5  H   THR A   2       9.247  23.388  28.000  0.00  0.00    +0.150 HD
BRANCH   2   6
ATOM      6  CA  PHE A   1      11.435  22.394  27.023  0.00  0.00    +0.149 C 
BRANCH   6   7
ATOM      7  N   PHE A   1      12.860  22.374  26.721  0.00  0.00    -0.238 NA
ATOM      8  H   PHE A   1      13.523  22.112  27.478  0.00  0.00    +0.142 HD
ENDBRANCH   6   7
BRANCH   6   9
ATOM      9  CB  PHE A   1      10.815  20.996  26.827  0.00  0.00    +0.053 C 
BRANCH   9  10
ATOM     10  CG  PHE A   1      11.321  19.952  27.797  0.00  0.00    -0.020 A 
ATOM     11  CD2 PHE A   1      10.655  19.716  29.002  0.00  0.00    -0.004 A 
ATOM     12  CE2 PHE A   1      11.108  18.737  29.877  0.00  0.00    -0.000 A 
ATOM     13  CZ  PHE A   1      12.234  17.980  29.575  0.00  0.00    -0.000 A 
ATOM     14  CE1 PHE A   1      12.902  18.197  28.378  0.00  0.00    -0.000 A 
ATOM     15  CD1 PHE A   1      12.460  19.186  27.501  0.00  0.00    -0.004 A 
ENDBRANCH   9  10
ENDBRANCH   6   9
ENDBRANCH   2   6
ENDBRANCH   1   4
BRANCH   1  16
ATOM     16  C   THR A   2       8.563  22.907  30.736  0.00  0.00    +0.243 C 
ATOM     17  N   VAL A   3       8.581  22.798  32.061  0.00  0.00    -0.298 N 
ATOM     18  H   VAL A   3       9.403  23.164  32.583  0.00  0.00    +0.150 HD
ATOM     19  O   THR A   2       7.747  22.314  30.038  0.00  0.00    -0.273 OA
BRANCH  17  20
ATOM     20  CA  VAL A   3       7.490  22.184  32.810  0.00  0.00    +0.137 C 
BRANCH  20  21
ATOM     21  CB  VAL A   3       7.826  20.757  33.299  0.00  0.00    +0.026 C 
ATOM     22  CG2 VAL A   3       6.719  20.229  34.204  0.00  0.00    +0.002 C 
ATOM     23  CG1 VAL A   3       8.022  19.815  32.124  0.00  0.00    +0.002 C 
ENDBRANCH  20  21
BRANCH  20  24
ATOM     24  C   VAL A   3       7.141  23.073  34.010  0.00  0.00    +0.227 C 
ATOM     25  O   VAL A   3       8.043  23.525  34.721  0.00  0.00    -0.286 OA
ENDBRANCH  20  24
ENDBRANCH  17  20
ENDBRANCH   1  16
BRANCH   1  26
ATOM     26  CB  THR A   2       9.130  25.262  30.097  0.00  0.00    +0.137 C 
ATOM     27  CG2 THR A   2      10.209  26.232  29.580  0.00  0.00    +0.034 C 
BRANCH  26  28
ATOM     28  OG1 THR A   2       7.967  25.370  29.261  0.00  0.00    -0.382 OA
ATOM     29  HG1 THR A   2       7.256  24.775  29.608  0.00  0.00    +0.210 HD
ENDBRANCH  26  28
ENDBRANCH   1  26
TORSDOF 11
REMARK  Name = ../refined-set-2016/4cwo/4cwo_pocket.pdb
REMARK  215 active torsions:
REMARK  status: ('A' for Active; 'I' for Inactive)
REMARK    1  A    between atoms: _1  and  _3
REMARK    2  A    between atoms: _3  and  _4
REMARK    3  A    between atoms: _3  and  _6
REMARK    4  A    between atoms: _6  and  _7
REMARK    5  A    between atoms: _13  and  _15
REMARK    6  A    between atoms: _15  and  _16
REMARK    7  A    between atoms: _15  and  _18
REMARK    8  A    between atoms: _18  and  _19
REMARK    9  A    between atoms: _22  and  _24
REMARK   10  A    between atoms: _24  and  _25
REMARK   11  A    between atoms: _24  and  _27
REMARK   12  A    between atoms: _27  and  _28
REMARK   13  A    between atoms: _34  and  _36
REMARK   14  A    between atoms: _36  and  _37
REMARK   15  A    between atoms: _36  and  _39
REMARK   16  A    between atoms: _39  and  _40
REMARK   17  A    between atoms: _43  and  _45
REMARK   18  A    between atoms: _45  and  _46
REMARK   19  A    between atoms: _45  and  _48
REMARK   20  A    between atoms: _48  and  _49
REMARK   21  A    between atoms: _49  and  _50
REMARK   22  A    between atoms: _53  and  _55
REMARK   23  A    between atoms: _55  and  _56
REMARK   24  A    between atoms: _55  and  _58
REMARK   25  A    between atoms: _58  and  _59
REMARK   26  A    between atoms: _62  and  _64
REMARK   27  A    between atoms: _64  and  _65
REMARK   28  A    between atoms: _64  and  _67
REMARK   29  A    between atoms: _67  and  _68
REMARK   30  A    between atoms: _71  and  _73
REMARK   31  A    between atoms: _73  and  _74
REMARK   32  A    between atoms: _73  and  _76
REMARK   33  A    between atoms: _76  and  _77
REMARK   34  A    between atoms: _79  and  _81
REMARK   35  A    between atoms: _81  and  _82
REMARK   36  A    between atoms: _81  and  _84
REMARK   37  A    between atoms: _84  and  _85
REMARK   38  A    between atoms: _90  and  _92
REMARK   39  A    between atoms: _92  and  _93
REMARK   40  A    between atoms: _92  and  _95
REMARK   41  A    between atoms: _95  and  _96
REMARK   42  A    between atoms: _98  and  _100
REMARK   43  A    between atoms: _100  and  _101
REMARK   44  A    between atoms: _100  and  _103
REMARK   45  A    between atoms: _103  and  _104
REMARK   46  A    between atoms: _106  and  _108
REMARK   47  A    between atoms: _108  and  _109
REMARK   48  A    between atoms: _108  and  _111
REMARK   49  A    between atoms: _111  and  _112
REMARK   50  A    between atoms: _115  and  _117
REMARK   51  A    between atoms: _117  and  _118
REMARK   52  A    between atoms: _121  and  _123
REMARK   53  A    between atoms: _123  and  _124
REMARK   54  A    between atoms: _123  and  _126
REMARK   55  A    between atoms: _126  and  _127
REMARK   56  A    between atoms: _130  and  _132
REMARK   57  A    between atoms: _132  and  _133
REMARK   58  A    between atoms: _132  and  _135
REMARK   59  A    between atoms: _135  and  _136
REMARK   60  A    between atoms: _139  and  _141
REMARK   61  A    between atoms: _141  and  _142
REMARK   62  A    between atoms: _141  and  _144
REMARK   63  A    between atoms: _147  and  _149
REMARK   64  A    between atoms: _149  and  _150
REMARK   65  A    between atoms: _149  and  _152
REMARK   66  A    between atoms: _152  and  _153
REMARK   67  A    between atoms: _156  and  _158
REMARK   68  A    between atoms: _158  and  _159
REMARK   69  A    between atoms: _158  and  _161
REMARK   70  A    between atoms: _161  and  _162
REMARK   71  A    between atoms: _165  and  _167
REMARK   72  A    between atoms: _167  and  _168
REMARK   73  A    between atoms: _170  and  _172
REMARK   74  A    between atoms: _172  and  _173
REMARK   75  A    between atoms: _172  and  _175
REMARK   76  A    between atoms: _175  and  _176
REMARK   77  A    between atoms: _179  and  _181
REMARK   78  A    between atoms: _181  and  _182
REMARK   79  A    between atoms: _184  and  _186
REMARK   80  A    between atoms: _186  and  _187
REMARK   81  A    between atoms: _186  and  _189
REMARK   82  A    between atoms: _189  and  _190
REMARK   83  A    between atoms: _190  and  _191
REMARK   84  A    between atoms: _193  and  _195
REMARK   85  A    between atoms: _195  and  _196
REMARK   86  A    between atoms: _195  and  _198
REMARK   87  A    between atoms: _198  and  _199
REMARK   88  A    between atoms: _202  and  _204
REMARK   89  A    between atoms: _204  and  _205
REMARK   90  A    between atoms: _204  and  _207
REMARK   91  A    between atoms: _207  and  _208
REMARK   92  A    between atoms: _211  and  _213
REMARK   93  A    between atoms: _213  and  _214
REMARK   94  A    between atoms: _213  and  _216
REMARK   95  A    between atoms: _216  and  _217
REMARK   96  A    between atoms: _220  and  _222
REMARK   97  A    between atoms: _222  and  _223
REMARK   98  A    between atoms: _222  and  _225
REMARK   99  A    between atoms: _225  and  _226
REMARK  100  A    between atoms: _231  and  _233
REMARK  101  A    between atoms: _233  and  _234
REMARK  102  A    between atoms: _233  and  _236
REMARK  103  A    between atoms: _236  and  _237
REMARK  104  A    between atoms: _240  and  _242
REMARK  105  A    between atoms: _242  and  _243
REMARK  106  A    between atoms: _245  and  _247
REMARK  107  A    between atoms: _247  and  _248
REMARK  108  A    between atoms: _247  and  _250
REMARK  109  A    between atoms: _250  and  _251
REMARK  110  A    between atoms: _254  and  _256
REMARK  111  A    between atoms: _256  and  _257
REMARK  112  A    between atoms: _260  and  _262
REMARK  113  A    between atoms: _262  and  _263
REMARK  114  A    between atoms: _262  and  _265
REMARK  115  A    between atoms: _265  and  _266
REMARK  116  A    between atoms: _269  and  _271
REMARK  117  A    between atoms: _271  and  _272
REMARK  118  A    between atoms: _271  and  _274
REMARK  119  A    between atoms: _274  and  _275
REMARK  120  A    between atoms: _281  and  _283
REMARK  121  A    between atoms: _283  and  _284
REMARK  122  A    between atoms: _286  and  _288
REMARK  123  A    between atoms: _288  and  _289
REMARK  124  A    between atoms: _288  and  _291
REMARK  125  A    between atoms: _294  and  _296
REMARK  126  A    between atoms: _296  and  _297
REMARK  127  A    between atoms: _299  and  _301
REMARK  128  A    between atoms: _301  and  _302
REMARK  129  A    between atoms: _301  and  _304
REMARK  130  A    between atoms: _304  and  _305
REMARK  131  A    between atoms: _311  and  _313
REMARK  132  A    between atoms: _313  and  _314
REMARK  133  A    between atoms: _313  and  _316
REMARK  134  A    between atoms: _316  and  _317
REMARK  135  A    between atoms: _322  and  _323
REMARK  136  A    between atoms: _325  and  _327
REMARK  137  A    between atoms: _327  and  _328
REMARK  138  A    between atoms: _327  and  _330
REMARK  139  A    between atoms: _330  and  _331
REMARK  140  A    between atoms: _333  and  _335
REMARK  141  A    between atoms: _335  and  _336
REMARK  142  A    between atoms: _339  and  _341
REMARK  143  A    between atoms: _341  and  _342
REMARK  144  A    between atoms: _341  and  _344
REMARK  145  A    between atoms: _344  and  _345
REMARK  146  A    between atoms: _350  and  _351
REMARK  147  A    between atoms: _353  and  _355
REMARK  148  A    between atoms: _355  and  _356
REMARK  149  A    between atoms: _355  and  _358
REMARK  150  A    between atoms: _361  and  _363
REMARK  151  A    between atoms: _363  and  _364
REMARK  152  A    between atoms: _363  and  _366
REMARK  153  A    between atoms: _366  and  _367
REMARK  154  A    between atoms: _370  and  _372
REMARK  155  A    between atoms: _372  and  _373
REMARK  156  A    between atoms: _372  and  _375
REMARK  157  A    between atoms: _378  and  _380
REMARK  158  A    between atoms: _380  and  _381
REMARK  159  A    between atoms: _380  and  _383
REMARK  160  A    between atoms: _383  and  _384
REMARK  161  A    between atoms: _387  and  _389
REMARK  162  A    between atoms: _389  and  _390
REMARK  163  A    between atoms: _389  and  _392
REMARK  164  A    between atoms: _392  and  _393
REMARK  165  A    between atoms: _396  and  _398
REMARK  166  A    between atoms: _398  and  _399
REMARK  167  A    between atoms: _398  and  _401
REMARK  168  A    between atoms: _401  and  _402
REMARK  169  A    between atoms: _402  and  _403
REMARK  170  A    between atoms: _403  and  _404
REMARK  171  A    between atoms: _404  and  _405
REMARK  172  A    between atoms: _409  and  _411
REMARK  173  A    between atoms: _411  and  _412
REMARK  174  A    between atoms: _411  and  _414
REMARK  175  A    between atoms: _414  and  _415
REMARK  176  A    between atoms: _425  and  _427
REMARK  177  A    between atoms: _427  and  _428
REMARK  178  A    between atoms: _427  and  _430
REMARK  179  A    between atoms: _430  and  _431
REMARK  180  A    between atoms: _431  and  _432
REMARK  181  A    between atoms: _435  and  _437
REMARK  182  A    between atoms: _437  and  _438
REMARK  183  A    between atoms: _437  and  _440
REMARK  184  A    between atoms: _440  and  _441
REMARK  185  A    between atoms: _443  and  _445
REMARK  186  A    between atoms: _445  and  _446
REMARK  187  A    between atoms: _445  and  _448
REMARK  188  A    between atoms: _448  and  _449
REMARK  189  A    between atoms: _455  and  _457
REMARK  190  A    between atoms: _457  and  _458
REMARK  191  A    between atoms: _457  and  _460
REMARK  192  A    between atoms: _460  and  _461
REMARK  193  A    between atoms: _464  and  _466
REMARK  194  A    between atoms: _466  and  _467
REMARK  195  A    between atoms: _466  and  _469
REMARK  196  A    between atoms: _472  and  _474
REMARK  197  A    between atoms: _474  and  _475
REMARK  198  A    between atoms: _477  and  _479
REMARK  199  A    between atoms: _479  and  _480
REMARK  200  A    between atoms: _479  and  _482
REMARK  201  A    between atoms: _482  and  _483
REMARK  202  A    between atoms: _486  and  _488
REMARK  203  A    between atoms: _488  and  _489
REMARK  204  A    between atoms: _488  and  _491
REMARK  205  A    between atoms: _491  and  _492
REMARK  206  A    between atoms: _492  and  _493
REMARK  207  A    between atoms: _493  and  _494
REMARK  208  A    between atoms: _494  and  _495
REMARK  209  A    between atoms: _499  and  _501
REMARK  210  A    between atoms: _501  and  _502
REMARK  211  A    between atoms: _501  and  _504
REMARK  212  A    between atoms: _507  and  _509
REMARK  213  A    between atoms: _509  and  _510
REMARK  214  A    between atoms: _509  and  _512
REMARK  215  A    between atoms: _512  and  _513
REMARK                            x       y       z     vdW  Elec       q    Type
REMARK                         _______ _______ _______ _____ _____    ______ ____
ROOT
ATOM      1  CA  LYS A   3      -4.605  18.251  25.835  0.00  0.00    +0.149 C 
ENDROOT
BRANCH   1   3
ATOM      2  C   THR A   2      -4.740  16.051  26.849  0.00  0.00    +0.243 C 
ATOM      3  N   LYS A   3      -4.239  17.273  26.833  0.00  0.00    -0.297 N 
ATOM      4  H   LYS A   3      -3.554  17.542  27.568  0.00  0.00    +0.150 HD
ATOM      5  O   THR A   2      -5.536  15.638  26.014  0.00  0.00    -0.273 OA
BRANCH   2   6
ATOM      6  CA  THR A   2      -4.225  15.156  27.958  0.00  0.00    +0.176 C 
BRANCH   6   9
ATOM      7  C   GLY A   1      -5.271  14.203  29.903  0.00  0.00    +0.240 C 
ATOM      8  O   GLY A   1      -4.475  14.759  30.666  0.00  0.00    -0.274 OA
ATOM      9  N   THR A   2      -5.294  14.422  28.596  0.00  0.00    -0.295 N 
ATOM     10  H   THR A   2      -6.086  14.063  28.026  0.00  0.00    +0.150 HD
BRANCH   7  11
ATOM     11  CA  GLY A   1      -6.308  13.244  30.424  0.00  0.00    +0.169 C 
BRANCH  11  12
ATOM     12  N   GLY A   1      -6.609  13.470  31.824  0.00  0.00    -0.236 NA
ATOM     13  H   GLY A   1      -5.826  13.574  32.501  0.00  0.00    +0.142 HD
ENDBRANCH  11  12
ENDBRANCH   7  11
ENDBRANCH   6   9
BRANCH   6  14
ATOM     14  CB  THR A   2      -3.169  14.178  27.414  0.00  0.00    +0.137 C 
ATOM     15  CG2 THR A   2      -2.099  14.893  26.636  0.00  0.00    +0.034 C 
BRANCH  14  16
ATOM     16  OG1 THR A   2      -2.581  13.457  28.503  0.00  0.00    -0.382 OA
ATOM     17  HG1 THR A   2      -3.285  12.951  28.981  0.00  0.00    +0.210 HD
ENDBRANCH  14  16
ENDBRANCH   6  14
ENDBRANCH   2   6
ENDBRANCH   1   3
BRANCH   1  18
ATOM     18  C   LYS A   3      -3.320  18.731  25.168  0.00  0.00    +0.241 C 
ATOM     19  O   LYS A   3      -2.438  19.266  25.831  0.00  0.00    -0.273 OA
ATOM     20  N   VAL A   4      -3.207  18.497  23.860  0.00  0.00    -0.298 N 
ATOM     21  H   VAL A   4      -3.986  18.009  23.374  0.00  0.00    +0.150 HD
BRANCH  20  22
ATOM     22  CA  VAL A   4      -2.042  18.894  23.082  0.00  0.00    +0.137 C 
BRANCH  22  23
ATOM     23  CB  VAL A   4      -1.568  17.739  22.158  0.00  0.00    +0.026 C 
ATOM     24  CG2 VAL A   4      -1.175  16.499  22.975  0.00  0.00    +0.002 C 
ATOM     25  CG1 VAL A   4      -0.415  18.179  21.264  0.00  0.00    +0.002 C 
ENDBRANCH  22  23
BRANCH  22  26
ATOM     26  C   VAL A   4      -2.410  20.115  22.231  0.00  0.00    +0.227 C 
ATOM     27  O   VAL A   4      -3.340  20.059  21.435  0.00  0.00    -0.286 OA
ENDBRANCH  22  26
ENDBRANCH  20  22
ENDBRANCH   1  18
BRANCH   1  28
ATOM     28  CB  LYS A   3      -5.358  19.378  26.535  0.00  0.00    +0.029 C 
BRANCH  28  29
ATOM     29  CG  LYS A   3      -5.616  20.618  25.713  0.00  0.00    +0.000 C 
BRANCH  29  30
ATOM     30  CD  LYS A   3      -6.726  21.483  26.336  0.00  0.00    -0.024 C 
BRANCH  30  31
ATOM     31  CE  LYS A   3      -6.260  22.221  27.584  0.00  0.00    -0.086 C 
BRANCH  31  32
ATOM     32  NZ  LYS A   3      -7.348  23.067  28.147  0.00  0.00    +0.380 N 
ATOM     33  HZ1 LYS A   3      -7.000  23.557  28.996  0.00  0.00    -0.089 HD
ATOM     34  HZ2 LYS A   3      -8.158  22.465  28.400  0.00  0.00    -0.089 HD
ATOM     35  HZ3 LYS A   3      -7.643  23.768  27.437  0.00  0.00    -0.089 HD
ENDBRANCH  31  32
ENDBRANCH  30  31
ENDBRANCH  29  30
ENDBRANCH  28  29
ENDBRANCH   1  28
TORSDOF 16
REMARK  Name = ../refined-set-2016/4cwo/4cwo_pocket.pdb
REMARK  215 active torsions:
REMARK  status: ('A' for Active; 'I' for Inactive)
REMARK    1  A    between atoms: _1  and  _3
REMARK    2  A    between atoms: _3  and  _4
REMARK    3  A    between atoms: _3  and  _6
REMARK    4  A    between atoms: _6  and  _7
REMARK    5  A    between atoms: _13  and  _15
REMARK    6  A    between atoms: _15  and  _16
REMARK    7  A    between atoms: _15  and  _18
REMARK    8  A    between atoms: _18  and  _19
REMARK    9  A    between atoms: _22  and  _24
REMARK   10  A    between atoms: _24  and  _25
REMARK   11  A    between atoms: _24  and  _27
REMARK   12  A    between atoms: _27  and  _28
REMARK   13  A    between atoms: _34  and  _36
REMARK   14  A    between atoms: _36  and  _37
REMARK   15  A    between atoms: _36  and  _39
REMARK   16  A    between atoms: _39  and  _40
REMARK   17  A    between atoms: _43  and  _45
REMARK   18  A    between atoms: _45  and  _46
REMARK   19  A    between atoms: _45  and  _48
REMARK   20  A    between atoms: _48  and  _49
REMARK   21  A    between atoms: _49  and  _50
REMARK   22  A    between atoms: _53  and  _55
REMARK   23  A    between atoms: _55  and  _56
REMARK   24  A    between atoms: _55  and  _58
REMARK   25  A    between atoms: _58  and  _59
REMARK   26  A    between atoms: _62  and  _64
REMARK   27  A    between atoms: _64  and  _65
REMARK   28  A    between atoms: _64  and  _67
REMARK   29  A    between atoms: _67  and  _68
REMARK   30  A    between atoms: _71  and  _73
REMARK   31  A    between atoms: _73  and  _74
REMARK   32  A    between atoms: _73  and  _76
REMARK   33  A    between atoms: _76  and  _77
REMARK   34  A    between atoms: _79  and  _81
REMARK   35  A    between atoms: _81  and  _82
REMARK   36  A    between atoms: _81  and  _84
REMARK   37  A    between atoms: _84  and  _85
REMARK   38  A    between atoms: _90  and  _92
REMARK   39  A    between atoms: _92  and  _93
REMARK   40  A    between atoms: _92  and  _95
REMARK   41  A    between atoms: _95  and  _96
REMARK   42  A    between atoms: _98  and  _100
REMARK   43  A    between atoms: _100  and  _101
REMARK   44  A    between atoms: _100  and  _103
REMARK   45  A    between atoms: _103  and  _104
REMARK   46  A    between atoms: _106  and  _108
REMARK   47  A    between atoms: _108  and  _109
REMARK   48  A    between atoms: _108  and  _111
REMARK   49  A    between atoms: _111  and  _112
REMARK   50  A    between atoms: _115  and  _117
REMARK   51  A    between atoms: _117  and  _118
REMARK   52  A    between atoms: _121  and  _123
REMARK   53  A    between atoms: _123  and  _124
REMARK   54  A    between atoms: _123  and  _126
REMARK   55  A    between atoms: _126  and  _127
REMARK   56  A    between atoms: _130  and  _132
REMARK   57  A    between atoms: _132  and  _133
REMARK   58  A    between atoms: _132  and  _135
REMARK   59  A    between atoms: _135  and  _136
REMARK   60  A    between atoms: _139  and  _141
REMARK   61  A    between atoms: _141  and  _142
REMARK   62  A    between atoms: _141  and  _144
REMARK   63  A    between atoms: _147  and  _149
REMARK   64  A    between atoms: _149  and  _150
REMARK   65  A    between atoms: _149  and  _152
REMARK   66  A    between atoms: _152  and  _153
REMARK   67  A    between atoms: _156  and  _158
REMARK   68  A    between atoms: _158  and  _159
REMARK   69  A    between atoms: _158  and  _161
REMARK   70  A    between atoms: _161  and  _162
REMARK   71  A    between atoms: _165  and  _167
REMARK   72  A    between atoms: _167  and  _168
REMARK   73  A    between atoms: _170  and  _172
REMARK   74  A    between atoms: _172  and  _173
REMARK   75  A    between atoms: _172  and  _175
REMARK   76  A    between atoms: _175  and  _176
REMARK   77  A    between atoms: _179  and  _181
REMARK   78  A    between atoms: _181  and  _182
REMARK   79  A    between atoms: _184  and  _186
REMARK   80  A    between atoms: _186  and  _187
REMARK   81  A    between atoms: _186  and  _189
REMARK   82  A    between atoms: _189  and  _190
REMARK   83  A    between atoms: _190  and  _191
REMARK   84  A    between atoms: _193  and  _195
REMARK   85  A    between atoms: _195  and  _196
REMARK   86  A    between atoms: _195  and  _198
REMARK   87  A    between atoms: _198  and  _199
REMARK   88  A    between atoms: _202  and  _204
REMARK   89  A    between atoms: _204  and  _205
REMARK   90  A    between atoms: _204  and  _207
REMARK   91  A    between atoms: _207  and  _208
REMARK   92  A    between atoms: _211  and  _213
REMARK   93  A    between atoms: _213  and  _214
REMARK   94  A    between atoms: _213  and  _216
REMARK   95  A    between atoms: _216  and  _217
REMARK   96  A    between atoms: _220  and  _222
REMARK   97  A    between atoms: _222  and  _223
REMARK   98  A    between atoms: _222  and  _225
REMARK   99  A    between atoms: _225  and  _226
REMARK  100  A    between atoms: _231  and  _233
REMARK  101  A    between atoms: _233  and  _234
REMARK  102  A    between atoms: _233  and  _236
REMARK  103  A    between atoms: _236  and  _237
REMARK  104  A    between atoms: _240  and  _242
REMARK  105  A    between atoms: _242  and  _243
REMARK  106  A    between atoms: _245  and  _247
REMARK  107  A    between atoms: _247  and  _248
REMARK  108  A    between atoms: _247  and  _250
REMARK  109  A    between atoms: _250  and  _251
REMARK  110  A    between atoms: _254  and  _256
REMARK  111  A    between atoms: _256  and  _257
REMARK  112  A    between atoms: _260  and  _262
REMARK  113  A    between atoms: _262  and  _263
REMARK  114  A    between atoms: _262  and  _265
REMARK  115  A    between atoms: _265  and  _266
REMARK  116  A    between atoms: _269  and  _271
REMARK  117  A    between atoms: _271  and  _272
REMARK  118  A    between atoms: _271  and  _274
REMARK  119  A    between atoms: _274  and  _275
REMARK  120  A    between atoms: _281  and  _283
REMARK  121  A    between atoms: _283  and  _284
REMARK  122  A    between atoms: _286  and  _288
REMARK  123  A    between atoms: _288  and  _289
REMARK  124  A    between atoms: _288  and  _291
REMARK  125  A    between atoms: _294  and  _296
REMARK  126  A    between atoms: _296  and  _297
REMARK  127  A    between atoms: _299  and  _301
REMARK  128  A    between atoms: _301  and  _302
REMARK  129  A    between atoms: _301  and  _304
REMARK  130  A    between atoms: _304  and  _305
REMARK  131  A    between atoms: _311  and  _313
REMARK  132  A    between atoms: _313  and  _314
REMARK  133  A    between atoms: _313  and  _316
REMARK  134  A    between atoms: _316  and  _317
REMARK  135  A    between atoms: _322  and  _323
REMARK  136  A    between atoms: _325  and  _327
REMARK  137  A    between atoms: _327  and  _328
REMARK  138  A    between atoms: _327  and  _330
REMARK  139  A    between atoms: _330  and  _331
REMARK  140  A    between atoms: _333  and  _335
REMARK  141  A    between atoms: _335  and  _336
REMARK  142  A    between atoms: _339  and  _341
REMARK  143  A    between atoms: _341  and  _342
REMARK  144  A    between atoms: _341  and  _344
REMARK  145  A    between atoms: _344  and  _345
REMARK  146  A    between atoms: _350  and  _351
REMARK  147  A    between atoms: _353  and  _355
REMARK  148  A    between atoms: _355  and  _356
REMARK  149  A    between atoms: _355  and  _358
REMARK  150  A    between atoms: _361  and  _363
REMARK  151  A    between atoms: _363  and  _364
REMARK  152  A    between atoms: _363  and  _366
REMARK  153  A    between atoms: _366  and  _367
REMARK  154  A    between atoms: _370  and  _372
REMARK  155  A    between atoms: _372  and  _373
REMARK  156  A    between atoms: _372  and  _375
REMARK  157  A    between atoms: _378  and  _380
REMARK  158  A    between atoms: _380  and  _381
REMARK  159  A    between atoms: _380  and  _383
REMARK  160  A    between atoms: _383  and  _384
REMARK  161  A    between atoms: _387  and  _389
REMARK  162  A    between atoms: _389  and  _390
REMARK  163  A    between atoms: _389  and  _392
REMARK  164  A    between atoms: _392  and  _393
REMARK  165  A    between atoms: _396  and  _398
REMARK  166  A    between atoms: _398  and  _399
REMARK  167  A    between atoms: _398  and  _401
REMARK  168  A    between atoms: _401  and  _402
REMARK  169  A    between atoms: _402  and  _403
REMARK  170  A    between atoms: _403  and  _404
REMARK  171  A    between atoms: _404  and  _405
REMARK  172  A    between atoms: _409  and  _411
REMARK  173  A    between atoms: _411  and  _412
REMARK  174  A    between atoms: _411  and  _414
REMARK  175  A    between atoms: _414  and  _415
REMARK  176  A    between atoms: _425  and  _427
REMARK  177  A    between atoms: _427  and  _428
REMARK  178  A    between atoms: _427  and  _430
REMARK  179  A    between atoms: _430  and  _431
REMARK  180  A    between atoms: _431  and  _432
REMARK  181  A    between atoms: _435  and  _437
REMARK  182  A    between atoms: _437  and  _438
REMARK  183  A    between atoms: _437  and  _440
REMARK  184  A    between atoms: _440  and  _441
REMARK  185  A    between atoms: _443  and  _445
REMARK  186  A    between atoms: _445  and  _446
REMARK  187  A    between atoms: _445  and  _448
REMARK  188  A    between atoms: _448  and  _449
REMARK  189  A    between atoms: _455  and  _457
REMARK  190  A    between atoms: _457  and  _458
REMARK  191  A    between atoms: _457  and  _460
REMARK  192  A    between atoms: _460  and  _461
REMARK  193  A    between atoms: _464  and  _466
REMARK  194  A    between atoms: _466  and  _467
REMARK  195  A    between atoms: _466  and  _469
REMARK  196  A    between atoms: _472  and  _474
REMARK  197  A    between atoms: _474  and  _475
REMARK  198  A    between atoms: _477  and  _479
REMARK  199  A    between atoms: _479  and  _480
REMARK  200  A    between atoms: _479  and  _482
REMARK  201  A    between atoms: _482  and  _483
REMARK  202  A    between atoms: _486  and  _488
REMARK  203  A    between atoms: _488  and  _489
REMARK  204  A    between atoms: _488  and  _491
REMARK  205  A    between atoms: _491  and  _492
REMARK  206  A    between atoms: _492  and  _493
REMARK  207  A    between atoms: _493  and  _494
REMARK  208  A    between atoms: _494  and  _495
REMARK  209  A    between atoms: _499  and  _501
REMARK  210  A    between atoms: _501  and  _502
REMARK  211  A    between atoms: _501  and  _504
REMARK  212  A    between atoms: _507  and  _509
REMARK  213  A    between atoms: _509  and  _510
REMARK  214  A    between atoms: _509  and  _512
REMARK  215  A    between atoms: _512  and  _513
REMARK                            x       y       z     vdW  Elec       q    Type
REMARK                         _______ _______ _______ _____ _____    ______ ____
ROOT
ATOM      1  CA  LEU A   1      -0.396  22.936  18.226  0.00  0.00    +0.133 C 
ENDROOT
BRANCH   1   2
ATOM      2  N   LEU A   1      -1.318  22.725  19.328  0.00  0.00    -0.239 NA
ATOM      3  H   LEU A   1      -2.325  22.567  19.120  0.00  0.00    +0.142 HD
ENDBRANCH   1   2
BRANCH   1   4
ATOM      4  C   LEU A   1      -0.501  24.384  17.740  0.00  0.00    +0.224 C 
ATOM      5  O   LEU A   1      -1.516  24.755  17.144  0.00  0.00    -0.287 OA
ENDBRANCH   1   4
BRANCH   1   6
ATOM      6  CB  LEU A   1      -0.726  21.988  17.050  0.00  0.00    +0.025 C 
BRANCH   6   7
ATOM      7  CG  LEU A   1      -0.717  20.464  17.240  0.00  0.00    +0.002 C 
ATOM      8  CD2 LEU A   1       0.636  19.986  17.723  0.00  0.00    +0.000 C 
ATOM      9  CD1 LEU A   1      -1.062  19.780  15.924  0.00  0.00    +0.000 C 
ENDBRANCH   6   7
ENDBRANCH   1   6
TORSDOF 4
REMARK  Name = ../refined-set-2016/4cwo/4cwo_pocket.pdb
REMARK  215 active torsions:
REMARK  status: ('A' for Active; 'I' for Inactive)
REMARK    1  A    between atoms: _1  and  _3
REMARK    2  A    between atoms: _3  and  _4
REMARK    3  A    between atoms: _3  and  _6
REMARK    4  A    between atoms: _6  and  _7
REMARK    5  A    between atoms: _13  and  _15
REMARK    6  A    between atoms: _15  and  _16
REMARK    7  A    between atoms: _15  and  _18
REMARK    8  A    between atoms: _18  and  _19
REMARK    9  A    between atoms: _22  and  _24
REMARK   10  A    between atoms: _24  and  _25
REMARK   11  A    between atoms: _24  and  _27
REMARK   12  A    between atoms: _27  and  _28
REMARK   13  A    between atoms: _34  and  _36
REMARK   14  A    between atoms: _36  and  _37
REMARK   15  A    between atoms: _36  and  _39
REMARK   16  A    between atoms: _39  and  _40
REMARK   17  A    between atoms: _43  and  _45
REMARK   18  A    between atoms: _45  and  _46
REMARK   19  A    between atoms: _45  and  _48
REMARK   20  A    between atoms: _48  and  _49
REMARK   21  A    between atoms: _49  and  _50
REMARK   22  A    between atoms: _53  and  _55
REMARK   23  A    between atoms: _55  and  _56
REMARK   24  A    between atoms: _55  and  _58
REMARK   25  A    between atoms: _58  and  _59
REMARK   26  A    between atoms: _62  and  _64
REMARK   27  A    between atoms: _64  and  _65
REMARK   28  A    between atoms: _64  and  _67
REMARK   29  A    between atoms: _67  and  _68
REMARK   30  A    between atoms: _71  and  _73
REMARK   31  A    between atoms: _73  and  _74
REMARK   32  A    between atoms: _73  and  _76
REMARK   33  A    between atoms: _76  and  _77
REMARK   34  A    between atoms: _79  and  _81
REMARK   35  A    between atoms: _81  and  _82
REMARK   36  A    between atoms: _81  and  _84
REMARK   37  A    between atoms: _84  and  _85
REMARK   38  A    between atoms: _90  and  _92
REMARK   39  A    between atoms: _92  and  _93
REMARK   40  A    between atoms: _92  and  _95
REMARK   41  A    between atoms: _95  and  _96
REMARK   42  A    between atoms: _98  and  _100
REMARK   43  A    between atoms: _100  and  _101
REMARK   44  A    between atoms: _100  and  _103
REMARK   45  A    between atoms: _103  and  _104
REMARK   46  A    between atoms: _106  and  _108
REMARK   47  A    between atoms: _108  and  _109
REMARK   48  A    between atoms: _108  and  _111
REMARK   49  A    between atoms: _111  and  _112
REMARK   50  A    between atoms: _115  and  _117
REMARK   51  A    between atoms: _117  and  _118
REMARK   52  A    between atoms: _121  and  _123
REMARK   53  A    between atoms: _123  and  _124
REMARK   54  A    between atoms: _123  and  _126
REMARK   55  A    between atoms: _126  and  _127
REMARK   56  A    between atoms: _130  and  _132
REMARK   57  A    between atoms: _132  and  _133
REMARK   58  A    between atoms: _132  and  _135
REMARK   59  A    between atoms: _135  and  _136
REMARK   60  A    between atoms: _139  and  _141
REMARK   61  A    between atoms: _141  and  _142
REMARK   62  A    between atoms: _141  and  _144
REMARK   63  A    between atoms: _147  and  _149
REMARK   64  A    between atoms: _149  and  _150
REMARK   65  A    between atoms: _149  and  _152
REMARK   66  A    between atoms: _152  and  _153
REMARK   67  A    between atoms: _156  and  _158
REMARK   68  A    between atoms: _158  and  _159
REMARK   69  A    between atoms: _158  and  _161
REMARK   70  A    between atoms: _161  and  _162
REMARK   71  A    between atoms: _165  and  _167
REMARK   72  A    between atoms: _167  and  _168
REMARK   73  A    between atoms: _170  and  _172
REMARK   74  A    between atoms: _172  and  _173
REMARK   75  A    between atoms: _172  and  _175
REMARK   76  A    between atoms: _175  and  _176
REMARK   77  A    between atoms: _179  and  _181
REMARK   78  A    between atoms: _181  and  _182
REMARK   79  A    between atoms: _184  and  _186
REMARK   80  A    between atoms: _186  and  _187
REMARK   81  A    between atoms: _186  and  _189
REMARK   82  A    between atoms: _189  and  _190
REMARK   83  A    between atoms: _190  and  _191
REMARK   84  A    between atoms: _193  and  _195
REMARK   85  A    between atoms: _195  and  _196
REMARK   86  A    between atoms: _195  and  _198
REMARK   87  A    between atoms: _198  and  _199
REMARK   88  A    between atoms: _202  and  _204
REMARK   89  A    between atoms: _204  and  _205
REMARK   90  A    between atoms: _204  and  _207
REMARK   91  A    between atoms: _207  and  _208
REMARK   92  A    between atoms: _211  and  _213
REMARK   93  A    between atoms: _213  and  _214
REMARK   94  A    between atoms: _213  and  _216
REMARK   95  A    between atoms: _216  and  _217
REMARK   96  A    between atoms: _220  and  _222
REMARK   97  A    between atoms: _222  and  _223
REMARK   98  A    between atoms: _222  and  _225
REMARK   99  A    between atoms: _225  and  _226
REMARK  100  A    between atoms: _231  and  _233
REMARK  101  A    between atoms: _233  and  _234
REMARK  102  A    between atoms: _233  and  _236
REMARK  103  A    between atoms: _236  and  _237
REMARK  104  A    between atoms: _240  and  _242
REMARK  105  A    between atoms: _242  and  _243
REMARK  106  A    between atoms: _245  and  _247
REMARK  107  A    between atoms: _247  and  _248
REMARK  108  A    between atoms: _247  and  _250
REMARK  109  A    between atoms: _250  and  _251
REMARK  110  A    between atoms: _254  and  _256
REMARK  111  A    between atoms: _256  and  _257
REMARK  112  A    between atoms: _260  and  _262
REMARK  113  A    between atoms: _262  and  _263
REMARK  114  A    between atoms: _262  and  _265
REMARK  115  A    between atoms: _265  and  _266
REMARK  116  A    between atoms: _269  and  _271
REMARK  117  A    between atoms: _271  and  _272
REMARK  118  A    between atoms: _271  and  _274
REMARK  119  A    between atoms: _274  and  _275
REMARK  120  A    between atoms: _281  and  _283
REMARK  121  A    between atoms: _283  and  _284
REMARK  122  A    between atoms: _286  and  _288
REMARK  123  A    between atoms: _288  and  _289
REMARK  124  A    between atoms: _288  and  _291
REMARK  125  A    between atoms: _294  and  _296
REMARK  126  A    between atoms: _296  and  _297
REMARK  127  A    between atoms: _299  and  _301
REMARK  128  A    between atoms: _301  and  _302
REMARK  129  A    between atoms: _301  and  _304
REMARK  130  A    between atoms: _304  and  _305
REMARK  131  A    between atoms: _311  and  _313
REMARK  132  A    between atoms: _313  and  _314
REMARK  133  A    between atoms: _313  and  _316
REMARK  134  A    between atoms: _316  and  _317
REMARK  135  A    between atoms: _322  and  _323
REMARK  136  A    between atoms: _325  and  _327
REMARK  137  A    between atoms: _327  and  _328
REMARK  138  A    between atoms: _327  and  _330
REMARK  139  A    between atoms: _330  and  _331
REMARK  140  A    between atoms: _333  and  _335
REMARK  141  A    between atoms: _335  and  _336
REMARK  142  A    between atoms: _339  and  _341
REMARK  143  A    between atoms: _341  and  _342
REMARK  144  A    between atoms: _341  and  _344
REMARK  145  A    between atoms: _344  and  _345
REMARK  146  A    between atoms: _350  and  _351
REMARK  147  A    between atoms: _353  and  _355
REMARK  148  A    between atoms: _355  and  _356
REMARK  149  A    between atoms: _355  and  _358
REMARK  150  A    between atoms: _361  and  _363
REMARK  151  A    between atoms: _363  and  _364
REMARK  152  A    between atoms: _363  and  _366
REMARK  153  A    between atoms: _366  and  _367
REMARK  154  A    between atoms: _370  and  _372
REMARK  155  A    between atoms: _372  and  _373
REMARK  156  A    between atoms: _372  and  _375
REMARK  157  A    between atoms: _378  and  _380
REMARK  158  A    between atoms: _380  and  _381
REMARK  159  A    between atoms: _380  and  _383
REMARK  160  A    between atoms: _383  and  _384
REMARK  161  A    between atoms: _387  and  _389
REMARK  162  A    between atoms: _389  and  _390
REMARK  163  A    between atoms: _389  and  _392
REMARK  164  A    between atoms: _392  and  _393
REMARK  165  A    between atoms: _396  and  _398
REMARK  166  A    between atoms: _398  and  _399
REMARK  167  A    between atoms: _398  and  _401
REMARK  168  A    between atoms: _401  and  _402
REMARK  169  A    between atoms: _402  and  _403
REMARK  170  A    between atoms: _403  and  _404
REMARK  171  A    between atoms: _404  and  _405
REMARK  172  A    between atoms: _409  and  _411
REMARK  173  A    between atoms: _411  and  _412
REMARK  174  A    between atoms: _411  and  _414
REMARK  175  A    between atoms: _414  and  _415
REMARK  176  A    between atoms: _425  and  _427
REMARK  177  A    between atoms: _427  and  _428
REMARK  178  A    between atoms: _427  and  _430
REMARK  179  A    between atoms: _430  and  _431
REMARK  180  A    between atoms: _431  and  _432
REMARK  181  A    between atoms: _435  and  _437
REMARK  182  A    between atoms: _437  and  _438
REMARK  183  A    between atoms: _437  and  _440
REMARK  184  A    between atoms: _440  and  _441
REMARK  185  A    between atoms: _443  and  _445
REMARK  186  A    between atoms: _445  and  _446
REMARK  187  A    between atoms: _445  and  _448
REMARK  188  A    between atoms: _448  and  _449
REMARK  189  A    between atoms: _455  and  _457
REMARK  190  A    between atoms: _457  and  _458
REMARK  191  A    between atoms: _457  and  _460
REMARK  192  A    between atoms: _460  and  _461
REMARK  193  A    between atoms: _464  and  _466
REMARK  194  A    between atoms: _466  and  _467
REMARK  195  A    between atoms: _466  and  _469
REMARK  196  A    between atoms: _472  and  _474
REMARK  197  A    between atoms: _474  and  _475
REMARK  198  A    between atoms: _477  and  _479
REMARK  199  A    between atoms: _479  and  _480
REMARK  200  A    between atoms: _479  and  _482
REMARK  201  A    between atoms: _482  and  _483
REMARK  202  A    between atoms: _486  and  _488
REMARK  203  A    between atoms: _488  and  _489
REMARK  204  A    between atoms: _488  and  _491
REMARK  205  A    between atoms: _491  and  _492
REMARK  206  A    between atoms: _492  and  _493
REMARK  207  A    between atoms: _493  and  _494
REMARK  208  A    between atoms: _494  and  _495
REMARK  209  A    between atoms: _499  and  _501
REMARK  210  A    between atoms: _501  and  _502
REMARK  211  A    between atoms: _501  and  _504
REMARK  212  A    between atoms: _507  and  _509
REMARK  213  A    between atoms: _509  and  _510
REMARK  214  A    between atoms: _509  and  _512
REMARK  215  A    between atoms: _512  and  _513
REMARK                            x       y       z     vdW  Elec       q    Type
REMARK                         _______ _______ _______ _____ _____    ______ ____
ROOT
ATOM      1  O   HOH     1      14.398  14.446  26.471  0.00  0.00    +0.000 OA
ENDROOT
TORSDOF 0
REMARK  Name = ../refined-set-2016/4cwo/4cwo_pocket.pdb
REMARK  215 active torsions:
REMARK  status: ('A' for Active; 'I' for Inactive)
REMARK    1  A    between atoms: _1  and  _3
REMARK    2  A    between atoms: _3  and  _4
REMARK    3  A    between atoms: _3  and  _6
REMARK    4  A    between atoms: _6  and  _7
REMARK    5  A    between atoms: _13  and  _15
REMARK    6  A    between atoms: _15  and  _16
REMARK    7  A    between atoms: _15  and  _18
REMARK    8  A    between atoms: _18  and  _19
REMARK    9  A    between atoms: _22  and  _24
REMARK   10  A    between atoms: _24  and  _25
REMARK   11  A    between atoms: _24  and  _27
REMARK   12  A    between atoms: _27  and  _28
REMARK   13  A    between atoms: _34  and  _36
REMARK   14  A    between atoms: _36  and  _37
REMARK   15  A    between atoms: _36  and  _39
REMARK   16  A    between atoms: _39  and  _40
REMARK   17  A    between atoms: _43  and  _45
REMARK   18  A    between atoms: _45  and  _46
REMARK   19  A    between atoms: _45  and  _48
REMARK   20  A    between atoms: _48  and  _49
REMARK   21  A    between atoms: _49  and  _50
REMARK   22  A    between atoms: _53  and  _55
REMARK   23  A    between atoms: _55  and  _56
REMARK   24  A    between atoms: _55  and  _58
REMARK   25  A    between atoms: _58  and  _59
REMARK   26  A    between atoms: _62  and  _64
REMARK   27  A    between atoms: _64  and  _65
REMARK   28  A    between atoms: _64  and  _67
REMARK   29  A    between atoms: _67  and  _68
REMARK   30  A    between atoms: _71  and  _73
REMARK   31  A    between atoms: _73  and  _74
REMARK   32  A    between atoms: _73  and  _76
REMARK   33  A    between atoms: _76  and  _77
REMARK   34  A    between atoms: _79  and  _81
REMARK   35  A    between atoms: _81  and  _82
REMARK   36  A    between atoms: _81  and  _84
REMARK   37  A    between atoms: _84  and  _85
REMARK   38  A    between atoms: _90  and  _92
REMARK   39  A    between atoms: _92  and  _93
REMARK   40  A    between atoms: _92  and  _95
REMARK   41  A    between atoms: _95  and  _96
REMARK   42  A    between atoms: _98  and  _100
REMARK   43  A    between atoms: _100  and  _101
REMARK   44  A    between atoms: _100  and  _103
REMARK   45  A    between atoms: _103  and  _104
REMARK   46  A    between atoms: _106  and  _108
REMARK   47  A    between atoms: _108  and  _109
REMARK   48  A    between atoms: _108  and  _111
REMARK   49  A    between atoms: _111  and  _112
REMARK   50  A    between atoms: _115  and  _117
REMARK   51  A    between atoms: _117  and  _118
REMARK   52  A    between atoms: _121  and  _123
REMARK   53  A    between atoms: _123  and  _124
REMARK   54  A    between atoms: _123  and  _126
REMARK   55  A    between atoms: _126  and  _127
REMARK   56  A    between atoms: _130  and  _132
REMARK   57  A    between atoms: _132  and  _133
REMARK   58  A    between atoms: _132  and  _135
REMARK   59  A    between atoms: _135  and  _136
REMARK   60  A    between atoms: _139  and  _141
REMARK   61  A    between atoms: _141  and  _142
REMARK   62  A    between atoms: _141  and  _144
REMARK   63  A    between atoms: _147  and  _149
REMARK   64  A    between atoms: _149  and  _150
REMARK   65  A    between atoms: _149  and  _152
REMARK   66  A    between atoms: _152  and  _153
REMARK   67  A    between atoms: _156  and  _158
REMARK   68  A    between atoms: _158  and  _159
REMARK   69  A    between atoms: _158  and  _161
REMARK   70  A    between atoms: _161  and  _162
REMARK   71  A    between atoms: _165  and  _167
REMARK   72  A    between atoms: _167  and  _168
REMARK   73  A    between atoms: _170  and  _172
REMARK   74  A    between atoms: _172  and  _173
REMARK   75  A    between atoms: _172  and  _175
REMARK   76  A    between atoms: _175  and  _176
REMARK   77  A    between atoms: _179  and  _181
REMARK   78  A    between atoms: _181  and  _182
REMARK   79  A    between atoms: _184  and  _186
REMARK   80  A    between atoms: _186  and  _187
REMARK   81  A    between atoms: _186  and  _189
REMARK   82  A    between atoms: _189  and  _190
REMARK   83  A    between atoms: _190  and  _191
REMARK   84  A    between atoms: _193  and  _195
REMARK   85  A    between atoms: _195  and  _196
REMARK   86  A    between atoms: _195  and  _198
REMARK   87  A    between atoms: _198  and  _199
REMARK   88  A    between atoms: _202  and  _204
REMARK   89  A    between atoms: _204  and  _205
REMARK   90  A    between atoms: _204  and  _207
REMARK   91  A    between atoms: _207  and  _208
REMARK   92  A    between atoms: _211  and  _213
REMARK   93  A    between atoms: _213  and  _214
REMARK   94  A    between atoms: _213  and  _216
REMARK   95  A    between atoms: _216  and  _217
REMARK   96  A    between atoms: _220  and  _222
REMARK   97  A    between atoms: _222  and  _223
REMARK   98  A    between atoms: _222  and  _225
REMARK   99  A    between atoms: _225  and  _226
REMARK  100  A    between atoms: _231  and  _233
REMARK  101  A    between atoms: _233  and  _234
REMARK  102  A    between atoms: _233  and  _236
REMARK  103  A    between atoms: _236  and  _237
REMARK  104  A    between atoms: _240  and  _242
REMARK  105  A    between atoms: _242  and  _243
REMARK  106  A    between atoms: _245  and  _247
REMARK  107  A    between atoms: _247  and  _248
REMARK  108  A    between atoms: _247  and  _250
REMARK  109  A    between atoms: _250  and  _251
REMARK  110  A    between atoms: _254  and  _256
REMARK  111  A    between atoms: _256  and  _257
REMARK  112  A    between atoms: _260  and  _262
REMARK  113  A    between atoms: _262  and  _263
REMARK  114  A    between atoms: _262  and  _265
REMARK  115  A    between atoms: _265  and  _266
REMARK  116  A    between atoms: _269  and  _271
REMARK  117  A    between atoms: _271  and  _272
REMARK  118  A    between atoms: _271  and  _274
REMARK  119  A    between atoms: _274  and  _275
REMARK  120  A    between atoms: _281  and  _283
REMARK  121  A    between atoms: _283  and  _284
REMARK  122  A    between atoms: _286  and  _288
REMARK  123  A    between atoms: _288  and  _289
REMARK  124  A    between atoms: _288  and  _291
REMARK  125  A    between atoms: _294  and  _296
REMARK  126  A    between atoms: _296  and  _297
REMARK  127  A    between atoms: _299  and  _301
REMARK  128  A    between atoms: _301  and  _302
REMARK  129  A    between atoms: _301  and  _304
REMARK  130  A    between atoms: _304  and  _305
REMARK  131  A    between atoms: _311  and  _313
REMARK  132  A    between atoms: _313  and  _314
REMARK  133  A    between atoms: _313  and  _316
REMARK  134  A    between atoms: _316  and  _317
REMARK  135  A    between atoms: _322  and  _323
REMARK  136  A    between atoms: _325  and  _327
REMARK  137  A    between atoms: _327  and  _328
REMARK  138  A    between atoms: _327  and  _330
REMARK  139  A    between atoms: _330  and  _331
REMARK  140  A    between atoms: _333  and  _335
REMARK  141  A    between atoms: _335  and  _336
REMARK  142  A    between atoms: _339  and  _341
REMARK  143  A    between atoms: _341  and  _342
REMARK  144  A    between atoms: _341  and  _344
REMARK  145  A    between atoms: _344  and  _345
REMARK  146  A    between atoms: _350  and  _351
REMARK  147  A    between atoms: _353  and  _355
REMARK  148  A    between atoms: _355  and  _356
REMARK  149  A    between atoms: _355  and  _358
REMARK  150  A    between atoms: _361  and  _363
REMARK  151  A    between atoms: _363  and  _364
REMARK  152  A    between atoms: _363  and  _366
REMARK  153  A    between atoms: _366  and  _367
REMARK  154  A    between atoms: _370  and  _372
REMARK  155  A    between atoms: _372  and  _373
REMARK  156  A    between atoms: _372  and  _375
REMARK  157  A    between atoms: _378  and  _380
REMARK  158  A    between atoms: _380  and  _381
REMARK  159  A    between atoms: _380  and  _383
REMARK  160  A    between atoms: _383  and  _384
REMARK  161  A    between atoms: _387  and  _389
REMARK  162  A    between atoms: _389  and  _390
REMARK  163  A    between atoms: _389  and  _392
REMARK  164  A    between atoms: _392  and  _393
REMARK  165  A    between atoms: _396  and  _398
REMARK  166  A    between atoms: _398  and  _399
REMARK  167  A    between atoms: _398  and  _401
REMARK  168  A    between atoms: _401  and  _402
REMARK  169  A    between atoms: _402  and  _403
REMARK  170  A    between atoms: _403  and  _404
REMARK  171  A    between atoms: _404  and  _405
REMARK  172  A    between atoms: _409  and  _411
REMARK  173  A    between atoms: _411  and  _412
REMARK  174  A    between atoms: _411  and  _414
REMARK  175  A    between atoms: _414  and  _415
REMARK  176  A    between atoms: _425  and  _427
REMARK  177  A    between atoms: _427  and  _428
REMARK  178  A    between atoms: _427  and  _430
REMARK  179  A    between atoms: _430  and  _431
REMARK  180  A    between atoms: _431  and  _432
REMARK  181  A    between atoms: _435  and  _437
REMARK  182  A    between atoms: _437  and  _438
REMARK  183  A    between atoms: _437  and  _440
REMARK  184  A    between atoms: _440  and  _441
REMARK  185  A    between atoms: _443  and  _445
REMARK  186  A    between atoms: _445  and  _446
REMARK  187  A    between atoms: _445  and  _448
REMARK  188  A    between atoms: _448  and  _449
REMARK  189  A    between atoms: _455  and  _457
REMARK  190  A    between atoms: _457  and  _458
REMARK  191  A    between atoms: _457  and  _460
REMARK  192  A    between atoms: _460  and  _461
REMARK  193  A    between atoms: _464  and  _466
REMARK  194  A    between atoms: _466  and  _467
REMARK  195  A    between atoms: _466  and  _469
REMARK  196  A    between atoms: _472  and  _474
REMARK  197  A    between atoms: _474  and  _475
REMARK  198  A    between atoms: _477  and  _479
REMARK  199  A    between atoms: _479  and  _480
REMARK  200  A    between atoms: _479  and  _482
REMARK  201  A    between atoms: _482  and  _483
REMARK  202  A    between atoms: _486  and  _488
REMARK  203  A    between atoms: _488  and  _489
REMARK  204  A    between atoms: _488  and  _491
REMARK  205  A    between atoms: _491  and  _492
REMARK  206  A    between atoms: _492  and  _493
REMARK  207  A    between atoms: _493  and  _494
REMARK  208  A    between atoms: _494  and  _495
REMARK  209  A    between atoms: _499  and  _501
REMARK  210  A    between atoms: _501  and  _502
REMARK  211  A    between atoms: _501  and  _504
REMARK  212  A    between atoms: _507  and  _509
REMARK  213  A    between atoms: _509  and  _510
REMARK  214  A    between atoms: _509  and  _512
REMARK  215  A    between atoms: _512  and  _513
REMARK                            x       y       z     vdW  Elec       q    Type
REMARK                         _______ _______ _______ _____ _____    ______ ____
ROOT
ATOM      1  O   HOH     1       2.129   7.949  17.358  0.00  0.00    +0.000 OA
ENDROOT
TORSDOF 0
REMARK  Name = ../refined-set-2016/4cwo/4cwo_pocket.pdb
REMARK  215 active torsions:
REMARK  status: ('A' for Active; 'I' for Inactive)
REMARK    1  A    between atoms: _1  and  _3
REMARK    2  A    between atoms: _3  and  _4
REMARK    3  A    between atoms: _3  and  _6
REMARK    4  A    between atoms: _6  and  _7
REMARK    5  A    between atoms: _13  and  _15
REMARK    6  A    between atoms: _15  and  _16
REMARK    7  A    between atoms: _15  and  _18
REMARK    8  A    between atoms: _18  and  _19
REMARK    9  A    between atoms: _22  and  _24
REMARK   10  A    between atoms: _24  and  _25
REMARK   11  A    between atoms: _24  and  _27
REMARK   12  A    between atoms: _27  and  _28
REMARK   13  A    between atoms: _34  and  _36
REMARK   14  A    between atoms: _36  and  _37
REMARK   15  A    between atoms: _36  and  _39
REMARK   16  A    between atoms: _39  and  _40
REMARK   17  A    between atoms: _43  and  _45
REMARK   18  A    between atoms: _45  and  _46
REMARK   19  A    between atoms: _45  and  _48
REMARK   20  A    between atoms: _48  and  _49
REMARK   21  A    between atoms: _49  and  _50
REMARK   22  A    between atoms: _53  and  _55
REMARK   23  A    between atoms: _55  and  _56
REMARK   24  A    between atoms: _55  and  _58
REMARK   25  A    between atoms: _58  and  _59
REMARK   26  A    between atoms: _62  and  _64
REMARK   27  A    between atoms: _64  and  _65
REMARK   28  A    between atoms: _64  and  _67
REMARK   29  A    between atoms: _67  and  _68
REMARK   30  A    between atoms: _71  and  _73
REMARK   31  A    between atoms: _73  and  _74
REMARK   32  A    between atoms: _73  and  _76
REMARK   33  A    between atoms: _76  and  _77
REMARK   34  A    between atoms: _79  and  _81
REMARK   35  A    between atoms: _81  and  _82
REMARK   36  A    between atoms: _81  and  _84
REMARK   37  A    between atoms: _84  and  _85
REMARK   38  A    between atoms: _90  and  _92
REMARK   39  A    between atoms: _92  and  _93
REMARK   40  A    between atoms: _92  and  _95
REMARK   41  A    between atoms: _95  and  _96
REMARK   42  A    between atoms: _98  and  _100
REMARK   43  A    between atoms: _100  and  _101
REMARK   44  A    between atoms: _100  and  _103
REMARK   45  A    between atoms: _103  and  _104
REMARK   46  A    between atoms: _106  and  _108
REMARK   47  A    between atoms: _108  and  _109
REMARK   48  A    between atoms: _108  and  _111
REMARK   49  A    between atoms: _111  and  _112
REMARK   50  A    between atoms: _115  and  _117
REMARK   51  A    between atoms: _117  and  _118
REMARK   52  A    between atoms: _121  and  _123
REMARK   53  A    between atoms: _123  and  _124
REMARK   54  A    between atoms: _123  and  _126
REMARK   55  A    between atoms: _126  and  _127
REMARK   56  A    between atoms: _130  and  _132
REMARK   57  A    between atoms: _132  and  _133
REMARK   58  A    between atoms: _132  and  _135
REMARK   59  A    between atoms: _135  and  _136
REMARK   60  A    between atoms: _139  and  _141
REMARK   61  A    between atoms: _141  and  _142
REMARK   62  A    between atoms: _141  and  _144
REMARK   63  A    between atoms: _147  and  _149
REMARK   64  A    between atoms: _149  and  _150
REMARK   65  A    between atoms: _149  and  _152
REMARK   66  A    between atoms: _152  and  _153
REMARK   67  A    between atoms: _156  and  _158
REMARK   68  A    between atoms: _158  and  _159
REMARK   69  A    between atoms: _158  and  _161
REMARK   70  A    between atoms: _161  and  _162
REMARK   71  A    between atoms: _165  and  _167
REMARK   72  A    between atoms: _167  and  _168
REMARK   73  A    between atoms: _170  and  _172
REMARK   74  A    between atoms: _172  and  _173
REMARK   75  A    between atoms: _172  and  _175
REMARK   76  A    between atoms: _175  and  _176
REMARK   77  A    between atoms: _179  and  _181
REMARK   78  A    between atoms: _181  and  _182
REMARK   79  A    between atoms: _184  and  _186
REMARK   80  A    between atoms: _186  and  _187
REMARK   81  A    between atoms: _186  and  _189
REMARK   82  A    between atoms: _189  and  _190
REMARK   83  A    between atoms: _190  and  _191
REMARK   84  A    between atoms: _193  and  _195
REMARK   85  A    between atoms: _195  and  _196
REMARK   86  A    between atoms: _195  and  _198
REMARK   87  A    between atoms: _198  and  _199
REMARK   88  A    between atoms: _202  and  _204
REMARK   89  A    between atoms: _204  and  _205
REMARK   90  A    between atoms: _204  and  _207
REMARK   91  A    between atoms: _207  and  _208
REMARK   92  A    between atoms: _211  and  _213
REMARK   93  A    between atoms: _213  and  _214
REMARK   94  A    between atoms: _213  and  _216
REMARK   95  A    between atoms: _216  and  _217
REMARK   96  A    between atoms: _220  and  _222
REMARK   97  A    between atoms: _222  and  _223
REMARK   98  A    between atoms: _222  and  _225
REMARK   99  A    between atoms: _225  and  _226
REMARK  100  A    between atoms: _231  and  _233
REMARK  101  A    between atoms: _233  and  _234
REMARK  102  A    between atoms: _233  and  _236
REMARK  103  A    between atoms: _236  and  _237
REMARK  104  A    between atoms: _240  and  _242
REMARK  105  A    between atoms: _242  and  _243
REMARK  106  A    between atoms: _245  and  _247
REMARK  107  A    between atoms: _247  and  _248
REMARK  108  A    between atoms: _247  and  _250
REMARK  109  A    between atoms: _250  and  _251
REMARK  110  A    between atoms: _254  and  _256
REMARK  111  A    between atoms: _256  and  _257
REMARK  112  A    between atoms: _260  and  _262
REMARK  113  A    between atoms: _262  and  _263
REMARK  114  A    between atoms: _262  and  _265
REMARK  115  A    between atoms: _265  and  _266
REMARK  116  A    between atoms: _269  and  _271
REMARK  117  A    between atoms: _271  and  _272
REMARK  118  A    between atoms: _271  and  _274
REMARK  119  A    between atoms: _274  and  _275
REMARK  120  A    between atoms: _281  and  _283
REMARK  121  A    between atoms: _283  and  _284
REMARK  122  A    between atoms: _286  and  _288
REMARK  123  A    between atoms: _288  and  _289
REMARK  124  A    between atoms: _288  and  _291
REMARK  125  A    between atoms: _294  and  _296
REMARK  126  A    between atoms: _296  and  _297
REMARK  127  A    between atoms: _299  and  _301
REMARK  128  A    between atoms: _301  and  _302
REMARK  129  A    between atoms: _301  and  _304
REMARK  130  A    between atoms: _304  and  _305
REMARK  131  A    between atoms: _311  and  _313
REMARK  132  A    between atoms: _313  and  _314
REMARK  133  A    between atoms: _313  and  _316
REMARK  134  A    between atoms: _316  and  _317
REMARK  135  A    between atoms: _322  and  _323
REMARK  136  A    between atoms: _325  and  _327
REMARK  137  A    between atoms: _327  and  _328
REMARK  138  A    between atoms: _327  and  _330
REMARK  139  A    between atoms: _330  and  _331
REMARK  140  A    between atoms: _333  and  _335
REMARK  141  A    between atoms: _335  and  _336
REMARK  142  A    between atoms: _339  and  _341
REMARK  143  A    between atoms: _341  and  _342
REMARK  144  A    between atoms: _341  and  _344
REMARK  145  A    between atoms: _344  and  _345
REMARK  146  A    between atoms: _350  and  _351
REMARK  147  A    between atoms: _353  and  _355
REMARK  148  A    between atoms: _355  and  _356
REMARK  149  A    between atoms: _355  and  _358
REMARK  150  A    between atoms: _361  and  _363
REMARK  151  A    between atoms: _363  and  _364
REMARK  152  A    between atoms: _363  and  _366
REMARK  153  A    between atoms: _366  and  _367
REMARK  154  A    between atoms: _370  and  _372
REMARK  155  A    between atoms: _372  and  _373
REMARK  156  A    between atoms: _372  and  _375
REMARK  157  A    between atoms: _378  and  _380
REMARK  158  A    between atoms: _380  and  _381
REMARK  159  A    between atoms: _380  and  _383
REMARK  160  A    between atoms: _383  and  _384
REMARK  161  A    between atoms: _387  and  _389
REMARK  162  A    between atoms: _389  and  _390
REMARK  163  A    between atoms: _389  and  _392
REMARK  164  A    between atoms: _392  and  _393
REMARK  165  A    between atoms: _396  and  _398
REMARK  166  A    between atoms: _398  and  _399
REMARK  167  A    between atoms: _398  and  _401
REMARK  168  A    between atoms: _401  and  _402
REMARK  169  A    between atoms: _402  and  _403
REMARK  170  A    between atoms: _403  and  _404
REMARK  171  A    between atoms: _404  and  _405
REMARK  172  A    between atoms: _409  and  _411
REMARK  173  A    between atoms: _411  and  _412
REMARK  174  A    between atoms: _411  and  _414
REMARK  175  A    between atoms: _414  and  _415
REMARK  176  A    between atoms: _425  and  _427
REMARK  177  A    between atoms: _427  and  _428
REMARK  178  A    between atoms: _427  and  _430
REMARK  179  A    between atoms: _430  and  _431
REMARK  180  A    between atoms: _431  and  _432
REMARK  181  A    between atoms: _435  and  _437
REMARK  182  A    between atoms: _437  and  _438
REMARK  183  A    between atoms: _437  and  _440
REMARK  184  A    between atoms: _440  and  _441
REMARK  185  A    between atoms: _443  and  _445
REMARK  186  A    between atoms: _445  and  _446
REMARK  187  A    between atoms: _445  and  _448
REMARK  188  A    between atoms: _448  and  _449
REMARK  189  A    between atoms: _455  and  _457
REMARK  190  A    between atoms: _457  and  _458
REMARK  191  A    between atoms: _457  and  _460
REMARK  192  A    between atoms: _460  and  _461
REMARK  193  A    between atoms: _464  and  _466
REMARK  194  A    between atoms: _466  and  _467
REMARK  195  A    between atoms: _466  and  _469
REMARK  196  A    between atoms: _472  and  _474
REMARK  197  A    between atoms: _474  and  _475
REMARK  198  A    between atoms: _477  and  _479
REMARK  199  A    between atoms: _479  and  _480
REMARK  200  A    between atoms: _479  and  _482
REMARK  201  A    between atoms: _482  and  _483
REMARK  202  A    between atoms: _486  and  _488
REMARK  203  A    between atoms: _488  and  _489
REMARK  204  A    between atoms: _488  and  _491
REMARK  205  A    between atoms: _491  and  _492
REMARK  206  A    between atoms: _492  and  _493
REMARK  207  A    between atoms: _493  and  _494
REMARK  208  A    between atoms: _494  and  _495
REMARK  209  A    between atoms: _499  and  _501
REMARK  210  A    between atoms: _501  and  _502
REMARK  211  A    between atoms: _501  and  _504
REMARK  212  A    between atoms: _507  and  _509
REMARK  213  A    between atoms: _509  and  _510
REMARK  214  A    between atoms: _509  and  _512
REMARK  215  A    between atoms: _512  and  _513
REMARK                            x       y       z     vdW  Elec       q    Type
REMARK                         _______ _______ _______ _____ _____    ______ ____
ROOT
ATOM      1  O   HOH     1      -2.955  13.719  21.149  0.00  0.00    +0.000 OA
ENDROOT
TORSDOF 0
REMARK  Name = ../refined-set-2016/4cwo/4cwo_pocket.pdb
REMARK  215 active torsions:
REMARK  status: ('A' for Active; 'I' for Inactive)
REMARK    1  A    between atoms: _1  and  _3
REMARK    2  A    between atoms: _3  and  _4
REMARK    3  A    between atoms: _3  and  _6
REMARK    4  A    between atoms: _6  and  _7
REMARK    5  A    between atoms: _13  and  _15
REMARK    6  A    between atoms: _15  and  _16
REMARK    7  A    between atoms: _15  and  _18
REMARK    8  A    between atoms: _18  and  _19
REMARK    9  A    between atoms: _22  and  _24
REMARK   10  A    between atoms: _24  and  _25
REMARK   11  A    between atoms: _24  and  _27
REMARK   12  A    between atoms: _27  and  _28
REMARK   13  A    between atoms: _34  and  _36
REMARK   14  A    between atoms: _36  and  _37
REMARK   15  A    between atoms: _36  and  _39
REMARK   16  A    between atoms: _39  and  _40
REMARK   17  A    between atoms: _43  and  _45
REMARK   18  A    between atoms: _45  and  _46
REMARK   19  A    between atoms: _45  and  _48
REMARK   20  A    between atoms: _48  and  _49
REMARK   21  A    between atoms: _49  and  _50
REMARK   22  A    between atoms: _53  and  _55
REMARK   23  A    between atoms: _55  and  _56
REMARK   24  A    between atoms: _55  and  _58
REMARK   25  A    between atoms: _58  and  _59
REMARK   26  A    between atoms: _62  and  _64
REMARK   27  A    between atoms: _64  and  _65
REMARK   28  A    between atoms: _64  and  _67
REMARK   29  A    between atoms: _67  and  _68
REMARK   30  A    between atoms: _71  and  _73
REMARK   31  A    between atoms: _73  and  _74
REMARK   32  A    between atoms: _73  and  _76
REMARK   33  A    between atoms: _76  and  _77
REMARK   34  A    between atoms: _79  and  _81
REMARK   35  A    between atoms: _81  and  _82
REMARK   36  A    between atoms: _81  and  _84
REMARK   37  A    between atoms: _84  and  _85
REMARK   38  A    between atoms: _90  and  _92
REMARK   39  A    between atoms: _92  and  _93
REMARK   40  A    between atoms: _92  and  _95
REMARK   41  A    between atoms: _95  and  _96
REMARK   42  A    between atoms: _98  and  _100
REMARK   43  A    between atoms: _100  and  _101
REMARK   44  A    between atoms: _100  and  _103
REMARK   45  A    between atoms: _103  and  _104
REMARK   46  A    between atoms: _106  and  _108
REMARK   47  A    between atoms: _108  and  _109
REMARK   48  A    between atoms: _108  and  _111
REMARK   49  A    between atoms: _111  and  _112
REMARK   50  A    between atoms: _115  and  _117
REMARK   51  A    between atoms: _117  and  _118
REMARK   52  A    between atoms: _121  and  _123
REMARK   53  A    between atoms: _123  and  _124
REMARK   54  A    between atoms: _123  and  _126
REMARK   55  A    between atoms: _126  and  _127
REMARK   56  A    between atoms: _130  and  _132
REMARK   57  A    between atoms: _132  and  _133
REMARK   58  A    between atoms: _132  and  _135
REMARK   59  A    between atoms: _135  and  _136
REMARK   60  A    between atoms: _139  and  _141
REMARK   61  A    between atoms: _141  and  _142
REMARK   62  A    between atoms: _141  and  _144
REMARK   63  A    between atoms: _147  and  _149
REMARK   64  A    between atoms: _149  and  _150
REMARK   65  A    between atoms: _149  and  _152
REMARK   66  A    between atoms: _152  and  _153
REMARK   67  A    between atoms: _156  and  _158
REMARK   68  A    between atoms: _158  and  _159
REMARK   69  A    between atoms: _158  and  _161
REMARK   70  A    between atoms: _161  and  _162
REMARK   71  A    between atoms: _165  and  _167
REMARK   72  A    between atoms: _167  and  _168
REMARK   73  A    between atoms: _170  and  _172
REMARK   74  A    between atoms: _172  and  _173
REMARK   75  A    between atoms: _172  and  _175
REMARK   76  A    between atoms: _175  and  _176
REMARK   77  A    between atoms: _179  and  _181
REMARK   78  A    between atoms: _181  and  _182
REMARK   79  A    between atoms: _184  and  _186
REMARK   80  A    between atoms: _186  and  _187
REMARK   81  A    between atoms: _186  and  _189
REMARK   82  A    between atoms: _189  and  _190
REMARK   83  A    between atoms: _190  and  _191
REMARK   84  A    between atoms: _193  and  _195
REMARK   85  A    between atoms: _195  and  _196
REMARK   86  A    between atoms: _195  and  _198
REMARK   87  A    between atoms: _198  and  _199
REMARK   88  A    between atoms: _202  and  _204
REMARK   89  A    between atoms: _204  and  _205
REMARK   90  A    between atoms: _204  and  _207
REMARK   91  A    between atoms: _207  and  _208
REMARK   92  A    between atoms: _211  and  _213
REMARK   93  A    between atoms: _213  and  _214
REMARK   94  A    between atoms: _213  and  _216
REMARK   95  A    between atoms: _216  and  _217
REMARK   96  A    between atoms: _220  and  _222
REMARK   97  A    between atoms: _222  and  _223
REMARK   98  A    between atoms: _222  and  _225
REMARK   99  A    between atoms: _225  and  _226
REMARK  100  A    between atoms: _231  and  _233
REMARK  101  A    between atoms: _233  and  _234
REMARK  102  A    between atoms: _233  and  _236
REMARK  103  A    between atoms: _236  and  _237
REMARK  104  A    between atoms: _240  and  _242
REMARK  105  A    between atoms: _242  and  _243
REMARK  106  A    between atoms: _245  and  _247
REMARK  107  A    between atoms: _247  and  _248
REMARK  108  A    between atoms: _247  and  _250
REMARK  109  A    between atoms: _250  and  _251
REMARK  110  A    between atoms: _254  and  _256
REMARK  111  A    between atoms: _256  and  _257
REMARK  112  A    between atoms: _260  and  _262
REMARK  113  A    between atoms: _262  and  _263
REMARK  114  A    between atoms: _262  and  _265
REMARK  115  A    between atoms: _265  and  _266
REMARK  116  A    between atoms: _269  and  _271
REMARK  117  A    between atoms: _271  and  _272
REMARK  118  A    between atoms: _271  and  _274
REMARK  119  A    between atoms: _274  and  _275
REMARK  120  A    between atoms: _281  and  _283
REMARK  121  A    between atoms: _283  and  _284
REMARK  122  A    between atoms: _286  and  _288
REMARK  123  A    between atoms: _288  and  _289
REMARK  124  A    between atoms: _288  and  _291
REMARK  125  A    between atoms: _294  and  _296
REMARK  126  A    between atoms: _296  and  _297
REMARK  127  A    between atoms: _299  and  _301
REMARK  128  A    between atoms: _301  and  _302
REMARK  129  A    between atoms: _301  and  _304
REMARK  130  A    between atoms: _304  and  _305
REMARK  131  A    between atoms: _311  and  _313
REMARK  132  A    between atoms: _313  and  _314
REMARK  133  A    between atoms: _313  and  _316
REMARK  134  A    between atoms: _316  and  _317
REMARK  135  A    between atoms: _322  and  _323
REMARK  136  A    between atoms: _325  and  _327
REMARK  137  A    between atoms: _327  and  _328
REMARK  138  A    between atoms: _327  and  _330
REMARK  139  A    between atoms: _330  and  _331
REMARK  140  A    between atoms: _333  and  _335
REMARK  141  A    between atoms: _335  and  _336
REMARK  142  A    between atoms: _339  and  _341
REMARK  143  A    between atoms: _341  and  _342
REMARK  144  A    between atoms: _341  and  _344
REMARK  145  A    between atoms: _344  and  _345
REMARK  146  A    between atoms: _350  and  _351
REMARK  147  A    between atoms: _353  and  _355
REMARK  148  A    between atoms: _355  and  _356
REMARK  149  A    between atoms: _355  and  _358
REMARK  150  A    between atoms: _361  and  _363
REMARK  151  A    between atoms: _363  and  _364
REMARK  152  A    between atoms: _363  and  _366
REMARK  153  A    between atoms: _366  and  _367
REMARK  154  A    between atoms: _370  and  _372
REMARK  155  A    between atoms: _372  and  _373
REMARK  156  A    between atoms: _372  and  _375
REMARK  157  A    between atoms: _378  and  _380
REMARK  158  A    between atoms: _380  and  _381
REMARK  159  A    between atoms: _380  and  _383
REMARK  160  A    between atoms: _383  and  _384
REMARK  161  A    between atoms: _387  and  _389
REMARK  162  A    between atoms: _389  and  _390
REMARK  163  A    between atoms: _389  and  _392
REMARK  164  A    between atoms: _392  and  _393
REMARK  165  A    between atoms: _396  and  _398
REMARK  166  A    between atoms: _398  and  _399
REMARK  167  A    between atoms: _398  and  _401
REMARK  168  A    between atoms: _401  and  _402
REMARK  169  A    between atoms: _402  and  _403
REMARK  170  A    between atoms: _403  and  _404
REMARK  171  A    between atoms: _404  and  _405
REMARK  172  A    between atoms: _409  and  _411
REMARK  173  A    between atoms: _411  and  _412
REMARK  174  A    between atoms: _411  and  _414
REMARK  175  A    between atoms: _414  and  _415
REMARK  176  A    between atoms: _425  and  _427
REMARK  177  A    between atoms: _427  and  _428
REMARK  178  A    between atoms: _427  and  _430
REMARK  179  A    between atoms: _430  and  _431
REMARK  180  A    between atoms: _431  and  _432
REMARK  181  A    between atoms: _435  and  _437
REMARK  182  A    between atoms: _437  and  _438
REMARK  183  A    between atoms: _437  and  _440
REMARK  184  A    between atoms: _440  and  _441
REMARK  185  A    between atoms: _443  and  _445
REMARK  186  A    between atoms: _445  and  _446
REMARK  187  A    between atoms: _445  and  _448
REMARK  188  A    between atoms: _448  and  _449
REMARK  189  A    between atoms: _455  and  _457
REMARK  190  A    between atoms: _457  and  _458
REMARK  191  A    between atoms: _457  and  _460
REMARK  192  A    between atoms: _460  and  _461
REMARK  193  A    between atoms: _464  and  _466
REMARK  194  A    between atoms: _466  and  _467
REMARK  195  A    between atoms: _466  and  _469
REMARK  196  A    between atoms: _472  and  _474
REMARK  197  A    between atoms: _474  and  _475
REMARK  198  A    between atoms: _477  and  _479
REMARK  199  A    between atoms: _479  and  _480
REMARK  200  A    between atoms: _479  and  _482
REMARK  201  A    between atoms: _482  and  _483
REMARK  202  A    between atoms: _486  and  _488
REMARK  203  A    between atoms: _488  and  _489
REMARK  204  A    between atoms: _488  and  _491
REMARK  205  A    between atoms: _491  and  _492
REMARK  206  A    between atoms: _492  and  _493
REMARK  207  A    between atoms: _493  and  _494
REMARK  208  A    between atoms: _494  and  _495
REMARK  209  A    between atoms: _499  and  _501
REMARK  210  A    between atoms: _501  and  _502
REMARK  211  A    between atoms: _501  and  _504
REMARK  212  A    between atoms: _507  and  _509
REMARK  213  A    between atoms: _509  and  _510
REMARK  214  A    between atoms: _509  and  _512
REMARK  215  A    between atoms: _512  and  _513
REMARK                            x       y       z     vdW  Elec       q    Type
REMARK                         _______ _______ _______ _____ _____    ______ ____
ROOT
ATOM      1  O   HOH     1       0.040   7.529  24.675  0.00  0.00    +0.000 OA
ENDROOT
TORSDOF 0
REMARK  Name = ../refined-set-2016/4cwo/4cwo_pocket.pdb
REMARK  215 active torsions:
REMARK  status: ('A' for Active; 'I' for Inactive)
REMARK    1  A    between atoms: _1  and  _3
REMARK    2  A    between atoms: _3  and  _4
REMARK    3  A    between atoms: _3  and  _6
REMARK    4  A    between atoms: _6  and  _7
REMARK    5  A    between atoms: _13  and  _15
REMARK    6  A    between atoms: _15  and  _16
REMARK    7  A    between atoms: _15  and  _18
REMARK    8  A    between atoms: _18  and  _19
REMARK    9  A    between atoms: _22  and  _24
REMARK   10  A    between atoms: _24  and  _25
REMARK   11  A    between atoms: _24  and  _27
REMARK   12  A    between atoms: _27  and  _28
REMARK   13  A    between atoms: _34  and  _36
REMARK   14  A    between atoms: _36  and  _37
REMARK   15  A    between atoms: _36  and  _39
REMARK   16  A    between atoms: _39  and  _40
REMARK   17  A    between atoms: _43  and  _45
REMARK   18  A    between atoms: _45  and  _46
REMARK   19  A    between atoms: _45  and  _48
REMARK   20  A    between atoms: _48  and  _49
REMARK   21  A    between atoms: _49  and  _50
REMARK   22  A    between atoms: _53  and  _55
REMARK   23  A    between atoms: _55  and  _56
REMARK   24  A    between atoms: _55  and  _58
REMARK   25  A    between atoms: _58  and  _59
REMARK   26  A    between atoms: _62  and  _64
REMARK   27  A    between atoms: _64  and  _65
REMARK   28  A    between atoms: _64  and  _67
REMARK   29  A    between atoms: _67  and  _68
REMARK   30  A    between atoms: _71  and  _73
REMARK   31  A    between atoms: _73  and  _74
REMARK   32  A    between atoms: _73  and  _76
REMARK   33  A    between atoms: _76  and  _77
REMARK   34  A    between atoms: _79  and  _81
REMARK   35  A    between atoms: _81  and  _82
REMARK   36  A    between atoms: _81  and  _84
REMARK   37  A    between atoms: _84  and  _85
REMARK   38  A    between atoms: _90  and  _92
REMARK   39  A    between atoms: _92  and  _93
REMARK   40  A    between atoms: _92  and  _95
REMARK   41  A    between atoms: _95  and  _96
REMARK   42  A    between atoms: _98  and  _100
REMARK   43  A    between atoms: _100  and  _101
REMARK   44  A    between atoms: _100  and  _103
REMARK   45  A    between atoms: _103  and  _104
REMARK   46  A    between atoms: _106  and  _108
REMARK   47  A    between atoms: _108  and  _109
REMARK   48  A    between atoms: _108  and  _111
REMARK   49  A    between atoms: _111  and  _112
REMARK   50  A    between atoms: _115  and  _117
REMARK   51  A    between atoms: _117  and  _118
REMARK   52  A    between atoms: _121  and  _123
REMARK   53  A    between atoms: _123  and  _124
REMARK   54  A    between atoms: _123  and  _126
REMARK   55  A    between atoms: _126  and  _127
REMARK   56  A    between atoms: _130  and  _132
REMARK   57  A    between atoms: _132  and  _133
REMARK   58  A    between atoms: _132  and  _135
REMARK   59  A    between atoms: _135  and  _136
REMARK   60  A    between atoms: _139  and  _141
REMARK   61  A    between atoms: _141  and  _142
REMARK   62  A    between atoms: _141  and  _144
REMARK   63  A    between atoms: _147  and  _149
REMARK   64  A    between atoms: _149  and  _150
REMARK   65  A    between atoms: _149  and  _152
REMARK   66  A    between atoms: _152  and  _153
REMARK   67  A    between atoms: _156  and  _158
REMARK   68  A    between atoms: _158  and  _159
REMARK   69  A    between atoms: _158  and  _161
REMARK   70  A    between atoms: _161  and  _162
REMARK   71  A    between atoms: _165  and  _167
REMARK   72  A    between atoms: _167  and  _168
REMARK   73  A    between atoms: _170  and  _172
REMARK   74  A    between atoms: _172  and  _173
REMARK   75  A    between atoms: _172  and  _175
REMARK   76  A    between atoms: _175  and  _176
REMARK   77  A    between atoms: _179  and  _181
REMARK   78  A    between atoms: _181  and  _182
REMARK   79  A    between atoms: _184  and  _186
REMARK   80  A    between atoms: _186  and  _187
REMARK   81  A    between atoms: _186  and  _189
REMARK   82  A    between atoms: _189  and  _190
REMARK   83  A    between atoms: _190  and  _191
REMARK   84  A    between atoms: _193  and  _195
REMARK   85  A    between atoms: _195  and  _196
REMARK   86  A    between atoms: _195  and  _198
REMARK   87  A    between atoms: _198  and  _199
REMARK   88  A    between atoms: _202  and  _204
REMARK   89  A    between atoms: _204  and  _205
REMARK   90  A    between atoms: _204  and  _207
REMARK   91  A    between atoms: _207  and  _208
REMARK   92  A    between atoms: _211  and  _213
REMARK   93  A    between atoms: _213  and  _214
REMARK   94  A    between atoms: _213  and  _216
REMARK   95  A    between atoms: _216  and  _217
REMARK   96  A    between atoms: _220  and  _222
REMARK   97  A    between atoms: _222  and  _223
REMARK   98  A    between atoms: _222  and  _225
REMARK   99  A    between atoms: _225  and  _226
REMARK  100  A    between atoms: _231  and  _233
REMARK  101  A    between atoms: _233  and  _234
REMARK  102  A    between atoms: _233  and  _236
REMARK  103  A    between atoms: _236  and  _237
REMARK  104  A    between atoms: _240  and  _242
REMARK  105  A    between atoms: _242  and  _243
REMARK  106  A    between atoms: _245  and  _247
REMARK  107  A    between atoms: _247  and  _248
REMARK  108  A    between atoms: _247  and  _250
REMARK  109  A    between atoms: _250  and  _251
REMARK  110  A    between atoms: _254  and  _256
REMARK  111  A    between atoms: _256  and  _257
REMARK  112  A    between atoms: _260  and  _262
REMARK  113  A    between atoms: _262  and  _263
REMARK  114  A    between atoms: _262  and  _265
REMARK  115  A    between atoms: _265  and  _266
REMARK  116  A    between atoms: _269  and  _271
REMARK  117  A    between atoms: _271  and  _272
REMARK  118  A    between atoms: _271  and  _274
REMARK  119  A    between atoms: _274  and  _275
REMARK  120  A    between atoms: _281  and  _283
REMARK  121  A    between atoms: _283  and  _284
REMARK  122  A    between atoms: _286  and  _288
REMARK  123  A    between atoms: _288  and  _289
REMARK  124  A    between atoms: _288  and  _291
REMARK  125  A    between atoms: _294  and  _296
REMARK  126  A    between atoms: _296  and  _297
REMARK  127  A    between atoms: _299  and  _301
REMARK  128  A    between atoms: _301  and  _302
REMARK  129  A    between atoms: _301  and  _304
REMARK  130  A    between atoms: _304  and  _305
REMARK  131  A    between atoms: _311  and  _313
REMARK  132  A    between atoms: _313  and  _314
REMARK  133  A    between atoms: _313  and  _316
REMARK  134  A    between atoms: _316  and  _317
REMARK  135  A    between atoms: _322  and  _323
REMARK  136  A    between atoms: _325  and  _327
REMARK  137  A    between atoms: _327  and  _328
REMARK  138  A    between atoms: _327  and  _330
REMARK  139  A    between atoms: _330  and  _331
REMARK  140  A    between atoms: _333  and  _335
REMARK  141  A    between atoms: _335  and  _336
REMARK  142  A    between atoms: _339  and  _341
REMARK  143  A    between atoms: _341  and  _342
REMARK  144  A    between atoms: _341  and  _344
REMARK  145  A    between atoms: _344  and  _345
REMARK  146  A    between atoms: _350  and  _351
REMARK  147  A    between atoms: _353  and  _355
REMARK  148  A    between atoms: _355  and  _356
REMARK  149  A    between atoms: _355  and  _358
REMARK  150  A    between atoms: _361  and  _363
REMARK  151  A    between atoms: _363  and  _364
REMARK  152  A    between atoms: _363  and  _366
REMARK  153  A    between atoms: _366  and  _367
REMARK  154  A    between atoms: _370  and  _372
REMARK  155  A    between atoms: _372  and  _373
REMARK  156  A    between atoms: _372  and  _375
REMARK  157  A    between atoms: _378  and  _380
REMARK  158  A    between atoms: _380  and  _381
REMARK  159  A    between atoms: _380  and  _383
REMARK  160  A    between atoms: _383  and  _384
REMARK  161  A    between atoms: _387  and  _389
REMARK  162  A    between atoms: _389  and  _390
REMARK  163  A    between atoms: _389  and  _392
REMARK  164  A    between atoms: _392  and  _393
REMARK  165  A    between atoms: _396  and  _398
REMARK  166  A    between atoms: _398  and  _399
REMARK  167  A    between atoms: _398  and  _401
REMARK  168  A    between atoms: _401  and  _402
REMARK  169  A    between atoms: _402  and  _403
REMARK  170  A    between atoms: _403  and  _404
REMARK  171  A    between atoms: _404  and  _405
REMARK  172  A    between atoms: _409  and  _411
REMARK  173  A    between atoms: _411  and  _412
REMARK  174  A    between atoms: _411  and  _414
REMARK  175  A    between atoms: _414  and  _415
REMARK  176  A    between atoms: _425  and  _427
REMARK  177  A    between atoms: _427  and  _428
REMARK  178  A    between atoms: _427  and  _430
REMARK  179  A    between atoms: _430  and  _431
REMARK  180  A    between atoms: _431  and  _432
REMARK  181  A    between atoms: _435  and  _437
REMARK  182  A    between atoms: _437  and  _438
REMARK  183  A    between atoms: _437  and  _440
REMARK  184  A    between atoms: _440  and  _441
REMARK  185  A    between atoms: _443  and  _445
REMARK  186  A    between atoms: _445  and  _446
REMARK  187  A    between atoms: _445  and  _448
REMARK  188  A    between atoms: _448  and  _449
REMARK  189  A    between atoms: _455  and  _457
REMARK  190  A    between atoms: _457  and  _458
REMARK  191  A    between atoms: _457  and  _460
REMARK  192  A    between atoms: _460  and  _461
REMARK  193  A    between atoms: _464  and  _466
REMARK  194  A    between atoms: _466  and  _467
REMARK  195  A    between atoms: _466  and  _469
REMARK  196  A    between atoms: _472  and  _474
REMARK  197  A    between atoms: _474  and  _475
REMARK  198  A    between atoms: _477  and  _479
REMARK  199  A    between atoms: _479  and  _480
REMARK  200  A    between atoms: _479  and  _482
REMARK  201  A    between atoms: _482  and  _483
REMARK  202  A    between atoms: _486  and  _488
REMARK  203  A    between atoms: _488  and  _489
REMARK  204  A    between atoms: _488  and  _491
REMARK  205  A    between atoms: _491  and  _492
REMARK  206  A    between atoms: _492  and  _493
REMARK  207  A    between atoms: _493  and  _494
REMARK  208  A    between atoms: _494  and  _495
REMARK  209  A    between atoms: _499  and  _501
REMARK  210  A    between atoms: _501  and  _502
REMARK  211  A    between atoms: _501  and  _504
REMARK  212  A    between atoms: _507  and  _509
REMARK  213  A    between atoms: _509  and  _510
REMARK  214  A    between atoms: _509  and  _512
REMARK  215  A    between atoms: _512  and  _513
REMARK                            x       y       z     vdW  Elec       q    Type
REMARK                         _______ _______ _______ _____ _____    ______ ____
ROOT
ATOM      1  O   HOH     1       4.940   9.113  20.445  0.00  0.00    +0.000 OA
ENDROOT
TORSDOF 0
REMARK  Name = ../refined-set-2016/4cwo/4cwo_pocket.pdb
REMARK  215 active torsions:
REMARK  status: ('A' for Active; 'I' for Inactive)
REMARK    1  A    between atoms: _1  and  _3
REMARK    2  A    between atoms: _3  and  _4
REMARK    3  A    between atoms: _3  and  _6
REMARK    4  A    between atoms: _6  and  _7
REMARK    5  A    between atoms: _13  and  _15
REMARK    6  A    between atoms: _15  and  _16
REMARK    7  A    between atoms: _15  and  _18
REMARK    8  A    between atoms: _18  and  _19
REMARK    9  A    between atoms: _22  and  _24
REMARK   10  A    between atoms: _24  and  _25
REMARK   11  A    between atoms: _24  and  _27
REMARK   12  A    between atoms: _27  and  _28
REMARK   13  A    between atoms: _34  and  _36
REMARK   14  A    between atoms: _36  and  _37
REMARK   15  A    between atoms: _36  and  _39
REMARK   16  A    between atoms: _39  and  _40
REMARK   17  A    between atoms: _43  and  _45
REMARK   18  A    between atoms: _45  and  _46
REMARK   19  A    between atoms: _45  and  _48
REMARK   20  A    between atoms: _48  and  _49
REMARK   21  A    between atoms: _49  and  _50
REMARK   22  A    between atoms: _53  and  _55
REMARK   23  A    between atoms: _55  and  _56
REMARK   24  A    between atoms: _55  and  _58
REMARK   25  A    between atoms: _58  and  _59
REMARK   26  A    between atoms: _62  and  _64
REMARK   27  A    between atoms: _64  and  _65
REMARK   28  A    between atoms: _64  and  _67
REMARK   29  A    between atoms: _67  and  _68
REMARK   30  A    between atoms: _71  and  _73
REMARK   31  A    between atoms: _73  and  _74
REMARK   32  A    between atoms: _73  and  _76
REMARK   33  A    between atoms: _76  and  _77
REMARK   34  A    between atoms: _79  and  _81
REMARK   35  A    between atoms: _81  and  _82
REMARK   36  A    between atoms: _81  and  _84
REMARK   37  A    between atoms: _84  and  _85
REMARK   38  A    between atoms: _90  and  _92
REMARK   39  A    between atoms: _92  and  _93
REMARK   40  A    between atoms: _92  and  _95
REMARK   41  A    between atoms: _95  and  _96
REMARK   42  A    between atoms: _98  and  _100
REMARK   43  A    between atoms: _100  and  _101
REMARK   44  A    between atoms: _100  and  _103
REMARK   45  A    between atoms: _103  and  _104
REMARK   46  A    between atoms: _106  and  _108
REMARK   47  A    between atoms: _108  and  _109
REMARK   48  A    between atoms: _108  and  _111
REMARK   49  A    between atoms: _111  and  _112
REMARK   50  A    between atoms: _115  and  _117
REMARK   51  A    between atoms: _117  and  _118
REMARK   52  A    between atoms: _121  and  _123
REMARK   53  A    between atoms: _123  and  _124
REMARK   54  A    between atoms: _123  and  _126
REMARK   55  A    between atoms: _126  and  _127
REMARK   56  A    between atoms: _130  and  _132
REMARK   57  A    between atoms: _132  and  _133
REMARK   58  A    between atoms: _132  and  _135
REMARK   59  A    between atoms: _135  and  _136
REMARK   60  A    between atoms: _139  and  _141
REMARK   61  A    between atoms: _141  and  _142
REMARK   62  A    between atoms: _141  and  _144
REMARK   63  A    between atoms: _147  and  _149
REMARK   64  A    between atoms: _149  and  _150
REMARK   65  A    between atoms: _149  and  _152
REMARK   66  A    between atoms: _152  and  _153
REMARK   67  A    between atoms: _156  and  _158
REMARK   68  A    between atoms: _158  and  _159
REMARK   69  A    between atoms: _158  and  _161
REMARK   70  A    between atoms: _161  and  _162
REMARK   71  A    between atoms: _165  and  _167
REMARK   72  A    between atoms: _167  and  _168
REMARK   73  A    between atoms: _170  and  _172
REMARK   74  A    between atoms: _172  and  _173
REMARK   75  A    between atoms: _172  and  _175
REMARK   76  A    between atoms: _175  and  _176
REMARK   77  A    between atoms: _179  and  _181
REMARK   78  A    between atoms: _181  and  _182
REMARK   79  A    between atoms: _184  and  _186
REMARK   80  A    between atoms: _186  and  _187
REMARK   81  A    between atoms: _186  and  _189
REMARK   82  A    between atoms: _189  and  _190
REMARK   83  A    between atoms: _190  and  _191
REMARK   84  A    between atoms: _193  and  _195
REMARK   85  A    between atoms: _195  and  _196
REMARK   86  A    between atoms: _195  and  _198
REMARK   87  A    between atoms: _198  and  _199
REMARK   88  A    between atoms: _202  and  _204
REMARK   89  A    between atoms: _204  and  _205
REMARK   90  A    between atoms: _204  and  _207
REMARK   91  A    between atoms: _207  and  _208
REMARK   92  A    between atoms: _211  and  _213
REMARK   93  A    between atoms: _213  and  _214
REMARK   94  A    between atoms: _213  and  _216
REMARK   95  A    between atoms: _216  and  _217
REMARK   96  A    between atoms: _220  and  _222
REMARK   97  A    between atoms: _222  and  _223
REMARK   98  A    between atoms: _222  and  _225
REMARK   99  A    between atoms: _225  and  _226
REMARK  100  A    between atoms: _231  and  _233
REMARK  101  A    between atoms: _233  and  _234
REMARK  102  A    between atoms: _233  and  _236
REMARK  103  A    between atoms: _236  and  _237
REMARK  104  A    between atoms: _240  and  _242
REMARK  105  A    between atoms: _242  and  _243
REMARK  106  A    between atoms: _245  and  _247
REMARK  107  A    between atoms: _247  and  _248
REMARK  108  A    between atoms: _247  and  _250
REMARK  109  A    between atoms: _250  and  _251
REMARK  110  A    between atoms: _254  and  _256
REMARK  111  A    between atoms: _256  and  _257
REMARK  112  A    between atoms: _260  and  _262
REMARK  113  A    between atoms: _262  and  _263
REMARK  114  A    between atoms: _262  and  _265
REMARK  115  A    between atoms: _265  and  _266
REMARK  116  A    between atoms: _269  and  _271
REMARK  117  A    between atoms: _271  and  _272
REMARK  118  A    between atoms: _271  and  _274
REMARK  119  A    between atoms: _274  and  _275
REMARK  120  A    between atoms: _281  and  _283
REMARK  121  A    between atoms: _283  and  _284
REMARK  122  A    between atoms: _286  and  _288
REMARK  123  A    between atoms: _288  and  _289
REMARK  124  A    between atoms: _288  and  _291
REMARK  125  A    between atoms: _294  and  _296
REMARK  126  A    between atoms: _296  and  _297
REMARK  127  A    between atoms: _299  and  _301
REMARK  128  A    between atoms: _301  and  _302
REMARK  129  A    between atoms: _301  and  _304
REMARK  130  A    between atoms: _304  and  _305
REMARK  131  A    between atoms: _311  and  _313
REMARK  132  A    between atoms: _313  and  _314
REMARK  133  A    between atoms: _313  and  _316
REMARK  134  A    between atoms: _316  and  _317
REMARK  135  A    between atoms: _322  and  _323
REMARK  136  A    between atoms: _325  and  _327
REMARK  137  A    between atoms: _327  and  _328
REMARK  138  A    between atoms: _327  and  _330
REMARK  139  A    between atoms: _330  and  _331
REMARK  140  A    between atoms: _333  and  _335
REMARK  141  A    between atoms: _335  and  _336
REMARK  142  A    between atoms: _339  and  _341
REMARK  143  A    between atoms: _341  and  _342
REMARK  144  A    between atoms: _341  and  _344
REMARK  145  A    between atoms: _344  and  _345
REMARK  146  A    between atoms: _350  and  _351
REMARK  147  A    between atoms: _353  and  _355
REMARK  148  A    between atoms: _355  and  _356
REMARK  149  A    between atoms: _355  and  _358
REMARK  150  A    between atoms: _361  and  _363
REMARK  151  A    between atoms: _363  and  _364
REMARK  152  A    between atoms: _363  and  _366
REMARK  153  A    between atoms: _366  and  _367
REMARK  154  A    between atoms: _370  and  _372
REMARK  155  A    between atoms: _372  and  _373
REMARK  156  A    between atoms: _372  and  _375
REMARK  157  A    between atoms: _378  and  _380
REMARK  158  A    between atoms: _380  and  _381
REMARK  159  A    between atoms: _380  and  _383
REMARK  160  A    between atoms: _383  and  _384
REMARK  161  A    between atoms: _387  and  _389
REMARK  162  A    between atoms: _389  and  _390
REMARK  163  A    between atoms: _389  and  _392
REMARK  164  A    between atoms: _392  and  _393
REMARK  165  A    between atoms: _396  and  _398
REMARK  166  A    between atoms: _398  and  _399
REMARK  167  A    between atoms: _398  and  _401
REMARK  168  A    between atoms: _401  and  _402
REMARK  169  A    between atoms: _402  and  _403
REMARK  170  A    between atoms: _403  and  _404
REMARK  171  A    between atoms: _404  and  _405
REMARK  172  A    between atoms: _409  and  _411
REMARK  173  A    between atoms: _411  and  _412
REMARK  174  A    between atoms: _411  and  _414
REMARK  175  A    between atoms: _414  and  _415
REMARK  176  A    between atoms: _425  and  _427
REMARK  177  A    between atoms: _427  and  _428
REMARK  178  A    between atoms: _427  and  _430
REMARK  179  A    between atoms: _430  and  _431
REMARK  180  A    between atoms: _431  and  _432
REMARK  181  A    between atoms: _435  and  _437
REMARK  182  A    between atoms: _437  and  _438
REMARK  183  A    between atoms: _437  and  _440
REMARK  184  A    between atoms: _440  and  _441
REMARK  185  A    between atoms: _443  and  _445
REMARK  186  A    between atoms: _445  and  _446
REMARK  187  A    between atoms: _445  and  _448
REMARK  188  A    between atoms: _448  and  _449
REMARK  189  A    between atoms: _455  and  _457
REMARK  190  A    between atoms: _457  and  _458
REMARK  191  A    between atoms: _457  and  _460
REMARK  192  A    between atoms: _460  and  _461
REMARK  193  A    between atoms: _464  and  _466
REMARK  194  A    between atoms: _466  and  _467
REMARK  195  A    between atoms: _466  and  _469
REMARK  196  A    between atoms: _472  and  _474
REMARK  197  A    between atoms: _474  and  _475
REMARK  198  A    between atoms: _477  and  _479
REMARK  199  A    between atoms: _479  and  _480
REMARK  200  A    between atoms: _479  and  _482
REMARK  201  A    between atoms: _482  and  _483
REMARK  202  A    between atoms: _486  and  _488
REMARK  203  A    between atoms: _488  and  _489
REMARK  204  A    between atoms: _488  and  _491
REMARK  205  A    between atoms: _491  and  _492
REMARK  206  A    between atoms: _492  and  _493
REMARK  207  A    between atoms: _493  and  _494
REMARK  208  A    between atoms: _494  and  _495
REMARK  209  A    between atoms: _499  and  _501
REMARK  210  A    between atoms: _501  and  _502
REMARK  211  A    between atoms: _501  and  _504
REMARK  212  A    between atoms: _507  and  _509
REMARK  213  A    between atoms: _509  and  _510
REMARK  214  A    between atoms: _509  and  _512
REMARK  215  A    between atoms: _512  and  _513
REMARK                            x       y       z     vdW  Elec       q    Type
REMARK                         _______ _______ _______ _____ _____    ______ ____
ROOT
ATOM      1  O   HOH     1      -4.223  14.892  23.308  0.00  0.00    +0.000 OA
ENDROOT
TORSDOF 0
REMARK  Name = ../refined-set-2016/4cwo/4cwo_pocket.pdb
REMARK  215 active torsions:
REMARK  status: ('A' for Active; 'I' for Inactive)
REMARK    1  A    between atoms: _1  and  _3
REMARK    2  A    between atoms: _3  and  _4
REMARK    3  A    between atoms: _3  and  _6
REMARK    4  A    between atoms: _6  and  _7
REMARK    5  A    between atoms: _13  and  _15
REMARK    6  A    between atoms: _15  and  _16
REMARK    7  A    between atoms: _15  and  _18
REMARK    8  A    between atoms: _18  and  _19
REMARK    9  A    between atoms: _22  and  _24
REMARK   10  A    between atoms: _24  and  _25
REMARK   11  A    between atoms: _24  and  _27
REMARK   12  A    between atoms: _27  and  _28
REMARK   13  A    between atoms: _34  and  _36
REMARK   14  A    between atoms: _36  and  _37
REMARK   15  A    between atoms: _36  and  _39
REMARK   16  A    between atoms: _39  and  _40
REMARK   17  A    between atoms: _43  and  _45
REMARK   18  A    between atoms: _45  and  _46
REMARK   19  A    between atoms: _45  and  _48
REMARK   20  A    between atoms: _48  and  _49
REMARK   21  A    between atoms: _49  and  _50
REMARK   22  A    between atoms: _53  and  _55
REMARK   23  A    between atoms: _55  and  _56
REMARK   24  A    between atoms: _55  and  _58
REMARK   25  A    between atoms: _58  and  _59
REMARK   26  A    between atoms: _62  and  _64
REMARK   27  A    between atoms: _64  and  _65
REMARK   28  A    between atoms: _64  and  _67
REMARK   29  A    between atoms: _67  and  _68
REMARK   30  A    between atoms: _71  and  _73
REMARK   31  A    between atoms: _73  and  _74
REMARK   32  A    between atoms: _73  and  _76
REMARK   33  A    between atoms: _76  and  _77
REMARK   34  A    between atoms: _79  and  _81
REMARK   35  A    between atoms: _81  and  _82
REMARK   36  A    between atoms: _81  and  _84
REMARK   37  A    between atoms: _84  and  _85
REMARK   38  A    between atoms: _90  and  _92
REMARK   39  A    between atoms: _92  and  _93
REMARK   40  A    between atoms: _92  and  _95
REMARK   41  A    between atoms: _95  and  _96
REMARK   42  A    between atoms: _98  and  _100
REMARK   43  A    between atoms: _100  and  _101
REMARK   44  A    between atoms: _100  and  _103
REMARK   45  A    between atoms: _103  and  _104
REMARK   46  A    between atoms: _106  and  _108
REMARK   47  A    between atoms: _108  and  _109
REMARK   48  A    between atoms: _108  and  _111
REMARK   49  A    between atoms: _111  and  _112
REMARK   50  A    between atoms: _115  and  _117
REMARK   51  A    between atoms: _117  and  _118
REMARK   52  A    between atoms: _121  and  _123
REMARK   53  A    between atoms: _123  and  _124
REMARK   54  A    between atoms: _123  and  _126
REMARK   55  A    between atoms: _126  and  _127
REMARK   56  A    between atoms: _130  and  _132
REMARK   57  A    between atoms: _132  and  _133
REMARK   58  A    between atoms: _132  and  _135
REMARK   59  A    between atoms: _135  and  _136
REMARK   60  A    between atoms: _139  and  _141
REMARK   61  A    between atoms: _141  and  _142
REMARK   62  A    between atoms: _141  and  _144
REMARK   63  A    between atoms: _147  and  _149
REMARK   64  A    between atoms: _149  and  _150
REMARK   65  A    between atoms: _149  and  _152
REMARK   66  A    between atoms: _152  and  _153
REMARK   67  A    between atoms: _156  and  _158
REMARK   68  A    between atoms: _158  and  _159
REMARK   69  A    between atoms: _158  and  _161
REMARK   70  A    between atoms: _161  and  _162
REMARK   71  A    between atoms: _165  and  _167
REMARK   72  A    between atoms: _167  and  _168
REMARK   73  A    between atoms: _170  and  _172
REMARK   74  A    between atoms: _172  and  _173
REMARK   75  A    between atoms: _172  and  _175
REMARK   76  A    between atoms: _175  and  _176
REMARK   77  A    between atoms: _179  and  _181
REMARK   78  A    between atoms: _181  and  _182
REMARK   79  A    between atoms: _184  and  _186
REMARK   80  A    between atoms: _186  and  _187
REMARK   81  A    between atoms: _186  and  _189
REMARK   82  A    between atoms: _189  and  _190
REMARK   83  A    between atoms: _190  and  _191
REMARK   84  A    between atoms: _193  and  _195
REMARK   85  A    between atoms: _195  and  _196
REMARK   86  A    between atoms: _195  and  _198
REMARK   87  A    between atoms: _198  and  _199
REMARK   88  A    between atoms: _202  and  _204
REMARK   89  A    between atoms: _204  and  _205
REMARK   90  A    between atoms: _204  and  _207
REMARK   91  A    between atoms: _207  and  _208
REMARK   92  A    between atoms: _211  and  _213
REMARK   93  A    between atoms: _213  and  _214
REMARK   94  A    between atoms: _213  and  _216
REMARK   95  A    between atoms: _216  and  _217
REMARK   96  A    between atoms: _220  and  _222
REMARK   97  A    between atoms: _222  and  _223
REMARK   98  A    between atoms: _222  and  _225
REMARK   99  A    between atoms: _225  and  _226
REMARK  100  A    between atoms: _231  and  _233
REMARK  101  A    between atoms: _233  and  _234
REMARK  102  A    between atoms: _233  and  _236
REMARK  103  A    between atoms: _236  and  _237
REMARK  104  A    between atoms: _240  and  _242
REMARK  105  A    between atoms: _242  and  _243
REMARK  106  A    between atoms: _245  and  _247
REMARK  107  A    between atoms: _247  and  _248
REMARK  108  A    between atoms: _247  and  _250
REMARK  109  A    between atoms: _250  and  _251
REMARK  110  A    between atoms: _254  and  _256
REMARK  111  A    between atoms: _256  and  _257
REMARK  112  A    between atoms: _260  and  _262
REMARK  113  A    between atoms: _262  and  _263
REMARK  114  A    between atoms: _262  and  _265
REMARK  115  A    between atoms: _265  and  _266
REMARK  116  A    between atoms: _269  and  _271
REMARK  117  A    between atoms: _271  and  _272
REMARK  118  A    between atoms: _271  and  _274
REMARK  119  A    between atoms: _274  and  _275
REMARK  120  A    between atoms: _281  and  _283
REMARK  121  A    between atoms: _283  and  _284
REMARK  122  A    between atoms: _286  and  _288
REMARK  123  A    between atoms: _288  and  _289
REMARK  124  A    between atoms: _288  and  _291
REMARK  125  A    between atoms: _294  and  _296
REMARK  126  A    between atoms: _296  and  _297
REMARK  127  A    between atoms: _299  and  _301
REMARK  128  A    between atoms: _301  and  _302
REMARK  129  A    between atoms: _301  and  _304
REMARK  130  A    between atoms: _304  and  _305
REMARK  131  A    between atoms: _311  and  _313
REMARK  132  A    between atoms: _313  and  _314
REMARK  133  A    between atoms: _313  and  _316
REMARK  134  A    between atoms: _316  and  _317
REMARK  135  A    between atoms: _322  and  _323
REMARK  136  A    between atoms: _325  and  _327
REMARK  137  A    between atoms: _327  and  _328
REMARK  138  A    between atoms: _327  and  _330
REMARK  139  A    between atoms: _330  and  _331
REMARK  140  A    between atoms: _333  and  _335
REMARK  141  A    between atoms: _335  and  _336
REMARK  142  A    between atoms: _339  and  _341
REMARK  143  A    between atoms: _341  and  _342
REMARK  144  A    between atoms: _341  and  _344
REMARK  145  A    between atoms: _344  and  _345
REMARK  146  A    between atoms: _350  and  _351
REMARK  147  A    between atoms: _353  and  _355
REMARK  148  A    between atoms: _355  and  _356
REMARK  149  A    between atoms: _355  and  _358
REMARK  150  A    between atoms: _361  and  _363
REMARK  151  A    between atoms: _363  and  _364
REMARK  152  A    between atoms: _363  and  _366
REMARK  153  A    between atoms: _366  and  _367
REMARK  154  A    between atoms: _370  and  _372
REMARK  155  A    between atoms: _372  and  _373
REMARK  156  A    between atoms: _372  and  _375
REMARK  157  A    between atoms: _378  and  _380
REMARK  158  A    between atoms: _380  and  _381
REMARK  159  A    between atoms: _380  and  _383
REMARK  160  A    between atoms: _383  and  _384
REMARK  161  A    between atoms: _387  and  _389
REMARK  162  A    between atoms: _389  and  _390
REMARK  163  A    between atoms: _389  and  _392
REMARK  164  A    between atoms: _392  and  _393
REMARK  165  A    between atoms: _396  and  _398
REMARK  166  A    between atoms: _398  and  _399
REMARK  167  A    between atoms: _398  and  _401
REMARK  168  A    between atoms: _401  and  _402
REMARK  169  A    between atoms: _402  and  _403
REMARK  170  A    between atoms: _403  and  _404
REMARK  171  A    between atoms: _404  and  _405
REMARK  172  A    between atoms: _409  and  _411
REMARK  173  A    between atoms: _411  and  _412
REMARK  174  A    between atoms: _411  and  _414
REMARK  175  A    between atoms: _414  and  _415
REMARK  176  A    between atoms: _425  and  _427
REMARK  177  A    between atoms: _427  and  _428
REMARK  178  A    between atoms: _427  and  _430
REMARK  179  A    between atoms: _430  and  _431
REMARK  180  A    between atoms: _431  and  _432
REMARK  181  A    between atoms: _435  and  _437
REMARK  182  A    between atoms: _437  and  _438
REMARK  183  A    between atoms: _437  and  _440
REMARK  184  A    between atoms: _440  and  _441
REMARK  185  A    between atoms: _443  and  _445
REMARK  186  A    between atoms: _445  and  _446
REMARK  187  A    between atoms: _445  and  _448
REMARK  188  A    between atoms: _448  and  _449
REMARK  189  A    between atoms: _455  and  _457
REMARK  190  A    between atoms: _457  and  _458
REMARK  191  A    between atoms: _457  and  _460
REMARK  192  A    between atoms: _460  and  _461
REMARK  193  A    between atoms: _464  and  _466
REMARK  194  A    between atoms: _466  and  _467
REMARK  195  A    between atoms: _466  and  _469
REMARK  196  A    between atoms: _472  and  _474
REMARK  197  A    between atoms: _474  and  _475
REMARK  198  A    between atoms: _477  and  _479
REMARK  199  A    between atoms: _479  and  _480
REMARK  200  A    between atoms: _479  and  _482
REMARK  201  A    between atoms: _482  and  _483
REMARK  202  A    between atoms: _486  and  _488
REMARK  203  A    between atoms: _488  and  _489
REMARK  204  A    between atoms: _488  and  _491
REMARK  205  A    between atoms: _491  and  _492
REMARK  206  A    between atoms: _492  and  _493
REMARK  207  A    between atoms: _493  and  _494
REMARK  208  A    between atoms: _494  and  _495
REMARK  209  A    between atoms: _499  and  _501
REMARK  210  A    between atoms: _501  and  _502
REMARK  211  A    between atoms: _501  and  _504
REMARK  212  A    between atoms: _507  and  _509
REMARK  213  A    between atoms: _509  and  _510
REMARK  214  A    between atoms: _509  and  _512
REMARK  215  A    between atoms: _512  and  _513
REMARK                            x       y       z     vdW  Elec       q    Type
REMARK                         _______ _______ _______ _____ _____    ______ ____
ROOT
ATOM      1  O   HOH     1       0.082   3.709  27.209  0.00  0.00    +0.000 OA
ENDROOT
TORSDOF 0
REMARK  Name = ../refined-set-2016/4cwo/4cwo_pocket.pdb
REMARK  215 active torsions:
REMARK  status: ('A' for Active; 'I' for Inactive)
REMARK    1  A    between atoms: _1  and  _3
REMARK    2  A    between atoms: _3  and  _4
REMARK    3  A    between atoms: _3  and  _6
REMARK    4  A    between atoms: _6  and  _7
REMARK    5  A    between atoms: _13  and  _15
REMARK    6  A    between atoms: _15  and  _16
REMARK    7  A    between atoms: _15  and  _18
REMARK    8  A    between atoms: _18  and  _19
REMARK    9  A    between atoms: _22  and  _24
REMARK   10  A    between atoms: _24  and  _25
REMARK   11  A    between atoms: _24  and  _27
REMARK   12  A    between atoms: _27  and  _28
REMARK   13  A    between atoms: _34  and  _36
REMARK   14  A    between atoms: _36  and  _37
REMARK   15  A    between atoms: _36  and  _39
REMARK   16  A    between atoms: _39  and  _40
REMARK   17  A    between atoms: _43  and  _45
REMARK   18  A    between atoms: _45  and  _46
REMARK   19  A    between atoms: _45  and  _48
REMARK   20  A    between atoms: _48  and  _49
REMARK   21  A    between atoms: _49  and  _50
REMARK   22  A    between atoms: _53  and  _55
REMARK   23  A    between atoms: _55  and  _56
REMARK   24  A    between atoms: _55  and  _58
REMARK   25  A    between atoms: _58  and  _59
REMARK   26  A    between atoms: _62  and  _64
REMARK   27  A    between atoms: _64  and  _65
REMARK   28  A    between atoms: _64  and  _67
REMARK   29  A    between atoms: _67  and  _68
REMARK   30  A    between atoms: _71  and  _73
REMARK   31  A    between atoms: _73  and  _74
REMARK   32  A    between atoms: _73  and  _76
REMARK   33  A    between atoms: _76  and  _77
REMARK   34  A    between atoms: _79  and  _81
REMARK   35  A    between atoms: _81  and  _82
REMARK   36  A    between atoms: _81  and  _84
REMARK   37  A    between atoms: _84  and  _85
REMARK   38  A    between atoms: _90  and  _92
REMARK   39  A    between atoms: _92  and  _93
REMARK   40  A    between atoms: _92  and  _95
REMARK   41  A    between atoms: _95  and  _96
REMARK   42  A    between atoms: _98  and  _100
REMARK   43  A    between atoms: _100  and  _101
REMARK   44  A    between atoms: _100  and  _103
REMARK   45  A    between atoms: _103  and  _104
REMARK   46  A    between atoms: _106  and  _108
REMARK   47  A    between atoms: _108  and  _109
REMARK   48  A    between atoms: _108  and  _111
REMARK   49  A    between atoms: _111  and  _112
REMARK   50  A    between atoms: _115  and  _117
REMARK   51  A    between atoms: _117  and  _118
REMARK   52  A    between atoms: _121  and  _123
REMARK   53  A    between atoms: _123  and  _124
REMARK   54  A    between atoms: _123  and  _126
REMARK   55  A    between atoms: _126  and  _127
REMARK   56  A    between atoms: _130  and  _132
REMARK   57  A    between atoms: _132  and  _133
REMARK   58  A    between atoms: _132  and  _135
REMARK   59  A    between atoms: _135  and  _136
REMARK   60  A    between atoms: _139  and  _141
REMARK   61  A    between atoms: _141  and  _142
REMARK   62  A    between atoms: _141  and  _144
REMARK   63  A    between atoms: _147  and  _149
REMARK   64  A    between atoms: _149  and  _150
REMARK   65  A    between atoms: _149  and  _152
REMARK   66  A    between atoms: _152  and  _153
REMARK   67  A    between atoms: _156  and  _158
REMARK   68  A    between atoms: _158  and  _159
REMARK   69  A    between atoms: _158  and  _161
REMARK   70  A    between atoms: _161  and  _162
REMARK   71  A    between atoms: _165  and  _167
REMARK   72  A    between atoms: _167  and  _168
REMARK   73  A    between atoms: _170  and  _172
REMARK   74  A    between atoms: _172  and  _173
REMARK   75  A    between atoms: _172  and  _175
REMARK   76  A    between atoms: _175  and  _176
REMARK   77  A    between atoms: _179  and  _181
REMARK   78  A    between atoms: _181  and  _182
REMARK   79  A    between atoms: _184  and  _186
REMARK   80  A    between atoms: _186  and  _187
REMARK   81  A    between atoms: _186  and  _189
REMARK   82  A    between atoms: _189  and  _190
REMARK   83  A    between atoms: _190  and  _191
REMARK   84  A    between atoms: _193  and  _195
REMARK   85  A    between atoms: _195  and  _196
REMARK   86  A    between atoms: _195  and  _198
REMARK   87  A    between atoms: _198  and  _199
REMARK   88  A    between atoms: _202  and  _204
REMARK   89  A    between atoms: _204  and  _205
REMARK   90  A    between atoms: _204  and  _207
REMARK   91  A    between atoms: _207  and  _208
REMARK   92  A    between atoms: _211  and  _213
REMARK   93  A    between atoms: _213  and  _214
REMARK   94  A    between atoms: _213  and  _216
REMARK   95  A    between atoms: _216  and  _217
REMARK   96  A    between atoms: _220  and  _222
REMARK   97  A    between atoms: _222  and  _223
REMARK   98  A    between atoms: _222  and  _225
REMARK   99  A    between atoms: _225  and  _226
REMARK  100  A    between atoms: _231  and  _233
REMARK  101  A    between atoms: _233  and  _234
REMARK  102  A    between atoms: _233  and  _236
REMARK  103  A    between atoms: _236  and  _237
REMARK  104  A    between atoms: _240  and  _242
REMARK  105  A    between atoms: _242  and  _243
REMARK  106  A    between atoms: _245  and  _247
REMARK  107  A    between atoms: _247  and  _248
REMARK  108  A    between atoms: _247  and  _250
REMARK  109  A    between atoms: _250  and  _251
REMARK  110  A    between atoms: _254  and  _256
REMARK  111  A    between atoms: _256  and  _257
REMARK  112  A    between atoms: _260  and  _262
REMARK  113  A    between atoms: _262  and  _263
REMARK  114  A    between atoms: _262  and  _265
REMARK  115  A    between atoms: _265  and  _266
REMARK  116  A    between atoms: _269  and  _271
REMARK  117  A    between atoms: _271  and  _272
REMARK  118  A    between atoms: _271  and  _274
REMARK  119  A    between atoms: _274  and  _275
REMARK  120  A    between atoms: _281  and  _283
REMARK  121  A    between atoms: _283  and  _284
REMARK  122  A    between atoms: _286  and  _288
REMARK  123  A    between atoms: _288  and  _289
REMARK  124  A    between atoms: _288  and  _291
REMARK  125  A    between atoms: _294  and  _296
REMARK  126  A    between atoms: _296  and  _297
REMARK  127  A    between atoms: _299  and  _301
REMARK  128  A    between atoms: _301  and  _302
REMARK  129  A    between atoms: _301  and  _304
REMARK  130  A    between atoms: _304  and  _305
REMARK  131  A    between atoms: _311  and  _313
REMARK  132  A    between atoms: _313  and  _314
REMARK  133  A    between atoms: _313  and  _316
REMARK  134  A    between atoms: _316  and  _317
REMARK  135  A    between atoms: _322  and  _323
REMARK  136  A    between atoms: _325  and  _327
REMARK  137  A    between atoms: _327  and  _328
REMARK  138  A    between atoms: _327  and  _330
REMARK  139  A    between atoms: _330  and  _331
REMARK  140  A    between atoms: _333  and  _335
REMARK  141  A    between atoms: _335  and  _336
REMARK  142  A    between atoms: _339  and  _341
REMARK  143  A    between atoms: _341  and  _342
REMARK  144  A    between atoms: _341  and  _344
REMARK  145  A    between atoms: _344  and  _345
REMARK  146  A    between atoms: _350  and  _351
REMARK  147  A    between atoms: _353  and  _355
REMARK  148  A    between atoms: _355  and  _356
REMARK  149  A    between atoms: _355  and  _358
REMARK  150  A    between atoms: _361  and  _363
REMARK  151  A    between atoms: _363  and  _364
REMARK  152  A    between atoms: _363  and  _366
REMARK  153  A    between atoms: _366  and  _367
REMARK  154  A    between atoms: _370  and  _372
REMARK  155  A    between atoms: _372  and  _373
REMARK  156  A    between atoms: _372  and  _375
REMARK  157  A    between atoms: _378  and  _380
REMARK  158  A    between atoms: _380  and  _381
REMARK  159  A    between atoms: _380  and  _383
REMARK  160  A    between atoms: _383  and  _384
REMARK  161  A    between atoms: _387  and  _389
REMARK  162  A    between atoms: _389  and  _390
REMARK  163  A    between atoms: _389  and  _392
REMARK  164  A    between atoms: _392  and  _393
REMARK  165  A    between atoms: _396  and  _398
REMARK  166  A    between atoms: _398  and  _399
REMARK  167  A    between atoms: _398  and  _401
REMARK  168  A    between atoms: _401  and  _402
REMARK  169  A    between atoms: _402  and  _403
REMARK  170  A    between atoms: _403  and  _404
REMARK  171  A    between atoms: _404  and  _405
REMARK  172  A    between atoms: _409  and  _411
REMARK  173  A    between atoms: _411  and  _412
REMARK  174  A    between atoms: _411  and  _414
REMARK  175  A    between atoms: _414  and  _415
REMARK  176  A    between atoms: _425  and  _427
REMARK  177  A    between atoms: _427  and  _428
REMARK  178  A    between atoms: _427  and  _430
REMARK  179  A    between atoms: _430  and  _431
REMARK  180  A    between atoms: _431  and  _432
REMARK  181  A    between atoms: _435  and  _437
REMARK  182  A    between atoms: _437  and  _438
REMARK  183  A    between atoms: _437  and  _440
REMARK  184  A    between atoms: _440  and  _441
REMARK  185  A    between atoms: _443  and  _445
REMARK  186  A    between atoms: _445  and  _446
REMARK  187  A    between atoms: _445  and  _448
REMARK  188  A    between atoms: _448  and  _449
REMARK  189  A    between atoms: _455  and  _457
REMARK  190  A    between atoms: _457  and  _458
REMARK  191  A    between atoms: _457  and  _460
REMARK  192  A    between atoms: _460  and  _461
REMARK  193  A    between atoms: _464  and  _466
REMARK  194  A    between atoms: _466  and  _467
REMARK  195  A    between atoms: _466  and  _469
REMARK  196  A    between atoms: _472  and  _474
REMARK  197  A    between atoms: _474  and  _475
REMARK  198  A    between atoms: _477  and  _479
REMARK  199  A    between atoms: _479  and  _480
REMARK  200  A    between atoms: _479  and  _482
REMARK  201  A    between atoms: _482  and  _483
REMARK  202  A    between atoms: _486  and  _488
REMARK  203  A    between atoms: _488  and  _489
REMARK  204  A    between atoms: _488  and  _491
REMARK  205  A    between atoms: _491  and  _492
REMARK  206  A    between atoms: _492  and  _493
REMARK  207  A    between atoms: _493  and  _494
REMARK  208  A    between atoms: _494  and  _495
REMARK  209  A    between atoms: _499  and  _501
REMARK  210  A    between atoms: _501  and  _502
REMARK  211  A    between atoms: _501  and  _504
REMARK  212  A    between atoms: _507  and  _509
REMARK  213  A    between atoms: _509  and  _510
REMARK  214  A    between atoms: _509  and  _512
REMARK  215  A    between atoms: _512  and  _513
REMARK                            x       y       z     vdW  Elec       q    Type
REMARK                         _______ _______ _______ _____ _____    ______ ____
ROOT
ATOM      1  O   HOH     1       1.640   6.626  29.853  0.00  0.00    +0.000 OA
ENDROOT
TORSDOF 0
REMARK  Name = ../refined-set-2016/4cwo/4cwo_pocket.pdb
REMARK  215 active torsions:
REMARK  status: ('A' for Active; 'I' for Inactive)
REMARK    1  A    between atoms: _1  and  _3
REMARK    2  A    between atoms: _3  and  _4
REMARK    3  A    between atoms: _3  and  _6
REMARK    4  A    between atoms: _6  and  _7
REMARK    5  A    between atoms: _13  and  _15
REMARK    6  A    between atoms: _15  and  _16
REMARK    7  A    between atoms: _15  and  _18
REMARK    8  A    between atoms: _18  and  _19
REMARK    9  A    between atoms: _22  and  _24
REMARK   10  A    between atoms: _24  and  _25
REMARK   11  A    between atoms: _24  and  _27
REMARK   12  A    between atoms: _27  and  _28
REMARK   13  A    between atoms: _34  and  _36
REMARK   14  A    between atoms: _36  and  _37
REMARK   15  A    between atoms: _36  and  _39
REMARK   16  A    between atoms: _39  and  _40
REMARK   17  A    between atoms: _43  and  _45
REMARK   18  A    between atoms: _45  and  _46
REMARK   19  A    between atoms: _45  and  _48
REMARK   20  A    between atoms: _48  and  _49
REMARK   21  A    between atoms: _49  and  _50
REMARK   22  A    between atoms: _53  and  _55
REMARK   23  A    between atoms: _55  and  _56
REMARK   24  A    between atoms: _55  and  _58
REMARK   25  A    between atoms: _58  and  _59
REMARK   26  A    between atoms: _62  and  _64
REMARK   27  A    between atoms: _64  and  _65
REMARK   28  A    between atoms: _64  and  _67
REMARK   29  A    between atoms: _67  and  _68
REMARK   30  A    between atoms: _71  and  _73
REMARK   31  A    between atoms: _73  and  _74
REMARK   32  A    between atoms: _73  and  _76
REMARK   33  A    between atoms: _76  and  _77
REMARK   34  A    between atoms: _79  and  _81
REMARK   35  A    between atoms: _81  and  _82
REMARK   36  A    between atoms: _81  and  _84
REMARK   37  A    between atoms: _84  and  _85
REMARK   38  A    between atoms: _90  and  _92
REMARK   39  A    between atoms: _92  and  _93
REMARK   40  A    between atoms: _92  and  _95
REMARK   41  A    between atoms: _95  and  _96
REMARK   42  A    between atoms: _98  and  _100
REMARK   43  A    between atoms: _100  and  _101
REMARK   44  A    between atoms: _100  and  _103
REMARK   45  A    between atoms: _103  and  _104
REMARK   46  A    between atoms: _106  and  _108
REMARK   47  A    between atoms: _108  and  _109
REMARK   48  A    between atoms: _108  and  _111
REMARK   49  A    between atoms: _111  and  _112
REMARK   50  A    between atoms: _115  and  _117
REMARK   51  A    between atoms: _117  and  _118
REMARK   52  A    between atoms: _121  and  _123
REMARK   53  A    between atoms: _123  and  _124
REMARK   54  A    between atoms: _123  and  _126
REMARK   55  A    between atoms: _126  and  _127
REMARK   56  A    between atoms: _130  and  _132
REMARK   57  A    between atoms: _132  and  _133
REMARK   58  A    between atoms: _132  and  _135
REMARK   59  A    between atoms: _135  and  _136
REMARK   60  A    between atoms: _139  and  _141
REMARK   61  A    between atoms: _141  and  _142
REMARK   62  A    between atoms: _141  and  _144
REMARK   63  A    between atoms: _147  and  _149
REMARK   64  A    between atoms: _149  and  _150
REMARK   65  A    between atoms: _149  and  _152
REMARK   66  A    between atoms: _152  and  _153
REMARK   67  A    between atoms: _156  and  _158
REMARK   68  A    between atoms: _158  and  _159
REMARK   69  A    between atoms: _158  and  _161
REMARK   70  A    between atoms: _161  and  _162
REMARK   71  A    between atoms: _165  and  _167
REMARK   72  A    between atoms: _167  and  _168
REMARK   73  A    between atoms: _170  and  _172
REMARK   74  A    between atoms: _172  and  _173
REMARK   75  A    between atoms: _172  and  _175
REMARK   76  A    between atoms: _175  and  _176
REMARK   77  A    between atoms: _179  and  _181
REMARK   78  A    between atoms: _181  and  _182
REMARK   79  A    between atoms: _184  and  _186
REMARK   80  A    between atoms: _186  and  _187
REMARK   81  A    between atoms: _186  and  _189
REMARK   82  A    between atoms: _189  and  _190
REMARK   83  A    between atoms: _190  and  _191
REMARK   84  A    between atoms: _193  and  _195
REMARK   85  A    between atoms: _195  and  _196
REMARK   86  A    between atoms: _195  and  _198
REMARK   87  A    between atoms: _198  and  _199
REMARK   88  A    between atoms: _202  and  _204
REMARK   89  A    between atoms: _204  and  _205
REMARK   90  A    between atoms: _204  and  _207
REMARK   91  A    between atoms: _207  and  _208
REMARK   92  A    between atoms: _211  and  _213
REMARK   93  A    between atoms: _213  and  _214
REMARK   94  A    between atoms: _213  and  _216
REMARK   95  A    between atoms: _216  and  _217
REMARK   96  A    between atoms: _220  and  _222
REMARK   97  A    between atoms: _222  and  _223
REMARK   98  A    between atoms: _222  and  _225
REMARK   99  A    between atoms: _225  and  _226
REMARK  100  A    between atoms: _231  and  _233
REMARK  101  A    between atoms: _233  and  _234
REMARK  102  A    between atoms: _233  and  _236
REMARK  103  A    between atoms: _236  and  _237
REMARK  104  A    between atoms: _240  and  _242
REMARK  105  A    between atoms: _242  and  _243
REMARK  106  A    between atoms: _245  and  _247
REMARK  107  A    between atoms: _247  and  _248
REMARK  108  A    between atoms: _247  and  _250
REMARK  109  A    between atoms: _250  and  _251
REMARK  110  A    between atoms: _254  and  _256
REMARK  111  A    between atoms: _256  and  _257
REMARK  112  A    between atoms: _260  and  _262
REMARK  113  A    between atoms: _262  and  _263
REMARK  114  A    between atoms: _262  and  _265
REMARK  115  A    between atoms: _265  and  _266
REMARK  116  A    between atoms: _269  and  _271
REMARK  117  A    between atoms: _271  and  _272
REMARK  118  A    between atoms: _271  and  _274
REMARK  119  A    between atoms: _274  and  _275
REMARK  120  A    between atoms: _281  and  _283
REMARK  121  A    between atoms: _283  and  _284
REMARK  122  A    between atoms: _286  and  _288
REMARK  123  A    between atoms: _288  and  _289
REMARK  124  A    between atoms: _288  and  _291
REMARK  125  A    between atoms: _294  and  _296
REMARK  126  A    between atoms: _296  and  _297
REMARK  127  A    between atoms: _299  and  _301
REMARK  128  A    between atoms: _301  and  _302
REMARK  129  A    between atoms: _301  and  _304
REMARK  130  A    between atoms: _304  and  _305
REMARK  131  A    between atoms: _311  and  _313
REMARK  132  A    between atoms: _313  and  _314
REMARK  133  A    between atoms: _313  and  _316
REMARK  134  A    between atoms: _316  and  _317
REMARK  135  A    between atoms: _322  and  _323
REMARK  136  A    between atoms: _325  and  _327
REMARK  137  A    between atoms: _327  and  _328
REMARK  138  A    between atoms: _327  and  _330
REMARK  139  A    between atoms: _330  and  _331
REMARK  140  A    between atoms: _333  and  _335
REMARK  141  A    between atoms: _335  and  _336
REMARK  142  A    between atoms: _339  and  _341
REMARK  143  A    between atoms: _341  and  _342
REMARK  144  A    between atoms: _341  and  _344
REMARK  145  A    between atoms: _344  and  _345
REMARK  146  A    between atoms: _350  and  _351
REMARK  147  A    between atoms: _353  and  _355
REMARK  148  A    between atoms: _355  and  _356
REMARK  149  A    between atoms: _355  and  _358
REMARK  150  A    between atoms: _361  and  _363
REMARK  151  A    between atoms: _363  and  _364
REMARK  152  A    between atoms: _363  and  _366
REMARK  153  A    between atoms: _366  and  _367
REMARK  154  A    between atoms: _370  and  _372
REMARK  155  A    between atoms: _372  and  _373
REMARK  156  A    between atoms: _372  and  _375
REMARK  157  A    between atoms: _378  and  _380
REMARK  158  A    between atoms: _380  and  _381
REMARK  159  A    between atoms: _380  and  _383
REMARK  160  A    between atoms: _383  and  _384
REMARK  161  A    between atoms: _387  and  _389
REMARK  162  A    between atoms: _389  and  _390
REMARK  163  A    between atoms: _389  and  _392
REMARK  164  A    between atoms: _392  and  _393
REMARK  165  A    between atoms: _396  and  _398
REMARK  166  A    between atoms: _398  and  _399
REMARK  167  A    between atoms: _398  and  _401
REMARK  168  A    between atoms: _401  and  _402
REMARK  169  A    between atoms: _402  and  _403
REMARK  170  A    between atoms: _403  and  _404
REMARK  171  A    between atoms: _404  and  _405
REMARK  172  A    between atoms: _409  and  _411
REMARK  173  A    between atoms: _411  and  _412
REMARK  174  A    between atoms: _411  and  _414
REMARK  175  A    between atoms: _414  and  _415
REMARK  176  A    between atoms: _425  and  _427
REMARK  177  A    between atoms: _427  and  _428
REMARK  178  A    between atoms: _427  and  _430
REMARK  179  A    between atoms: _430  and  _431
REMARK  180  A    between atoms: _431  and  _432
REMARK  181  A    between atoms: _435  and  _437
REMARK  182  A    between atoms: _437  and  _438
REMARK  183  A    between atoms: _437  and  _440
REMARK  184  A    between atoms: _440  and  _441
REMARK  185  A    between atoms: _443  and  _445
REMARK  186  A    between atoms: _445  and  _446
REMARK  187  A    between atoms: _445  and  _448
REMARK  188  A    between atoms: _448  and  _449
REMARK  189  A    between atoms: _455  and  _457
REMARK  190  A    between atoms: _457  and  _458
REMARK  191  A    between atoms: _457  and  _460
REMARK  192  A    between atoms: _460  and  _461
REMARK  193  A    between atoms: _464  and  _466
REMARK  194  A    between atoms: _466  and  _467
REMARK  195  A    between atoms: _466  and  _469
REMARK  196  A    between atoms: _472  and  _474
REMARK  197  A    between atoms: _474  and  _475
REMARK  198  A    between atoms: _477  and  _479
REMARK  199  A    between atoms: _479  and  _480
REMARK  200  A    between atoms: _479  and  _482
REMARK  201  A    between atoms: _482  and  _483
REMARK  202  A    between atoms: _486  and  _488
REMARK  203  A    between atoms: _488  and  _489
REMARK  204  A    between atoms: _488  and  _491
REMARK  205  A    between atoms: _491  and  _492
REMARK  206  A    between atoms: _492  and  _493
REMARK  207  A    between atoms: _493  and  _494
REMARK  208  A    between atoms: _494  and  _495
REMARK  209  A    between atoms: _499  and  _501
REMARK  210  A    between atoms: _501  and  _502
REMARK  211  A    between atoms: _501  and  _504
REMARK  212  A    between atoms: _507  and  _509
REMARK  213  A    between atoms: _509  and  _510
REMARK  214  A    between atoms: _509  and  _512
REMARK  215  A    between atoms: _512  and  _513
REMARK                            x       y       z     vdW  Elec       q    Type
REMARK                         _______ _______ _______ _____ _____    ______ ____
ROOT
ATOM      1  O   HOH     1      -3.877  11.112  28.362  0.00  0.00    +0.000 OA
ENDROOT
TORSDOF 0
REMARK  Name = ../refined-set-2016/4cwo/4cwo_pocket.pdb
REMARK  215 active torsions:
REMARK  status: ('A' for Active; 'I' for Inactive)
REMARK    1  A    between atoms: _1  and  _3
REMARK    2  A    between atoms: _3  and  _4
REMARK    3  A    between atoms: _3  and  _6
REMARK    4  A    between atoms: _6  and  _7
REMARK    5  A    between atoms: _13  and  _15
REMARK    6  A    between atoms: _15  and  _16
REMARK    7  A    between atoms: _15  and  _18
REMARK    8  A    between atoms: _18  and  _19
REMARK    9  A    between atoms: _22  and  _24
REMARK   10  A    between atoms: _24  and  _25
REMARK   11  A    between atoms: _24  and  _27
REMARK   12  A    between atoms: _27  and  _28
REMARK   13  A    between atoms: _34  and  _36
REMARK   14  A    between atoms: _36  and  _37
REMARK   15  A    between atoms: _36  and  _39
REMARK   16  A    between atoms: _39  and  _40
REMARK   17  A    between atoms: _43  and  _45
REMARK   18  A    between atoms: _45  and  _46
REMARK   19  A    between atoms: _45  and  _48
REMARK   20  A    between atoms: _48  and  _49
REMARK   21  A    between atoms: _49  and  _50
REMARK   22  A    between atoms: _53  and  _55
REMARK   23  A    between atoms: _55  and  _56
REMARK   24  A    between atoms: _55  and  _58
REMARK   25  A    between atoms: _58  and  _59
REMARK   26  A    between atoms: _62  and  _64
REMARK   27  A    between atoms: _64  and  _65
REMARK   28  A    between atoms: _64  and  _67
REMARK   29  A    between atoms: _67  and  _68
REMARK   30  A    between atoms: _71  and  _73
REMARK   31  A    between atoms: _73  and  _74
REMARK   32  A    between atoms: _73  and  _76
REMARK   33  A    between atoms: _76  and  _77
REMARK   34  A    between atoms: _79  and  _81
REMARK   35  A    between atoms: _81  and  _82
REMARK   36  A    between atoms: _81  and  _84
REMARK   37  A    between atoms: _84  and  _85
REMARK   38  A    between atoms: _90  and  _92
REMARK   39  A    between atoms: _92  and  _93
REMARK   40  A    between atoms: _92  and  _95
REMARK   41  A    between atoms: _95  and  _96
REMARK   42  A    between atoms: _98  and  _100
REMARK   43  A    between atoms: _100  and  _101
REMARK   44  A    between atoms: _100  and  _103
REMARK   45  A    between atoms: _103  and  _104
REMARK   46  A    between atoms: _106  and  _108
REMARK   47  A    between atoms: _108  and  _109
REMARK   48  A    between atoms: _108  and  _111
REMARK   49  A    between atoms: _111  and  _112
REMARK   50  A    between atoms: _115  and  _117
REMARK   51  A    between atoms: _117  and  _118
REMARK   52  A    between atoms: _121  and  _123
REMARK   53  A    between atoms: _123  and  _124
REMARK   54  A    between atoms: _123  and  _126
REMARK   55  A    between atoms: _126  and  _127
REMARK   56  A    between atoms: _130  and  _132
REMARK   57  A    between atoms: _132  and  _133
REMARK   58  A    between atoms: _132  and  _135
REMARK   59  A    between atoms: _135  and  _136
REMARK   60  A    between atoms: _139  and  _141
REMARK   61  A    between atoms: _141  and  _142
REMARK   62  A    between atoms: _141  and  _144
REMARK   63  A    between atoms: _147  and  _149
REMARK   64  A    between atoms: _149  and  _150
REMARK   65  A    between atoms: _149  and  _152
REMARK   66  A    between atoms: _152  and  _153
REMARK   67  A    between atoms: _156  and  _158
REMARK   68  A    between atoms: _158  and  _159
REMARK   69  A    between atoms: _158  and  _161
REMARK   70  A    between atoms: _161  and  _162
REMARK   71  A    between atoms: _165  and  _167
REMARK   72  A    between atoms: _167  and  _168
REMARK   73  A    between atoms: _170  and  _172
REMARK   74  A    between atoms: _172  and  _173
REMARK   75  A    between atoms: _172  and  _175
REMARK   76  A    between atoms: _175  and  _176
REMARK   77  A    between atoms: _179  and  _181
REMARK   78  A    between atoms: _181  and  _182
REMARK   79  A    between atoms: _184  and  _186
REMARK   80  A    between atoms: _186  and  _187
REMARK   81  A    between atoms: _186  and  _189
REMARK   82  A    between atoms: _189  and  _190
REMARK   83  A    between atoms: _190  and  _191
REMARK   84  A    between atoms: _193  and  _195
REMARK   85  A    between atoms: _195  and  _196
REMARK   86  A    between atoms: _195  and  _198
REMARK   87  A    between atoms: _198  and  _199
REMARK   88  A    between atoms: _202  and  _204
REMARK   89  A    between atoms: _204  and  _205
REMARK   90  A    between atoms: _204  and  _207
REMARK   91  A    between atoms: _207  and  _208
REMARK   92  A    between atoms: _211  and  _213
REMARK   93  A    between atoms: _213  and  _214
REMARK   94  A    between atoms: _213  and  _216
REMARK   95  A    between atoms: _216  and  _217
REMARK   96  A    between atoms: _220  and  _222
REMARK   97  A    between atoms: _222  and  _223
REMARK   98  A    between atoms: _222  and  _225
REMARK   99  A    between atoms: _225  and  _226
REMARK  100  A    between atoms: _231  and  _233
REMARK  101  A    between atoms: _233  and  _234
REMARK  102  A    between atoms: _233  and  _236
REMARK  103  A    between atoms: _236  and  _237
REMARK  104  A    between atoms: _240  and  _242
REMARK  105  A    between atoms: _242  and  _243
REMARK  106  A    between atoms: _245  and  _247
REMARK  107  A    between atoms: _247  and  _248
REMARK  108  A    between atoms: _247  and  _250
REMARK  109  A    between atoms: _250  and  _251
REMARK  110  A    between atoms: _254  and  _256
REMARK  111  A    between atoms: _256  and  _257
REMARK  112  A    between atoms: _260  and  _262
REMARK  113  A    between atoms: _262  and  _263
REMARK  114  A    between atoms: _262  and  _265
REMARK  115  A    between atoms: _265  and  _266
REMARK  116  A    between atoms: _269  and  _271
REMARK  117  A    between atoms: _271  and  _272
REMARK  118  A    between atoms: _271  and  _274
REMARK  119  A    between atoms: _274  and  _275
REMARK  120  A    between atoms: _281  and  _283
REMARK  121  A    between atoms: _283  and  _284
REMARK  122  A    between atoms: _286  and  _288
REMARK  123  A    between atoms: _288  and  _289
REMARK  124  A    between atoms: _288  and  _291
REMARK  125  A    between atoms: _294  and  _296
REMARK  126  A    between atoms: _296  and  _297
REMARK  127  A    between atoms: _299  and  _301
REMARK  128  A    between atoms: _301  and  _302
REMARK  129  A    between atoms: _301  and  _304
REMARK  130  A    between atoms: _304  and  _305
REMARK  131  A    between atoms: _311  and  _313
REMARK  132  A    between atoms: _313  and  _314
REMARK  133  A    between atoms: _313  and  _316
REMARK  134  A    between atoms: _316  and  _317
REMARK  135  A    between atoms: _322  and  _323
REMARK  136  A    between atoms: _325  and  _327
REMARK  137  A    between atoms: _327  and  _328
REMARK  138  A    between atoms: _327  and  _330
REMARK  139  A    between atoms: _330  and  _331
REMARK  140  A    between atoms: _333  and  _335
REMARK  141  A    between atoms: _335  and  _336
REMARK  142  A    between atoms: _339  and  _341
REMARK  143  A    between atoms: _341  and  _342
REMARK  144  A    between atoms: _341  and  _344
REMARK  145  A    between atoms: _344  and  _345
REMARK  146  A    between atoms: _350  and  _351
REMARK  147  A    between atoms: _353  and  _355
REMARK  148  A    between atoms: _355  and  _356
REMARK  149  A    between atoms: _355  and  _358
REMARK  150  A    between atoms: _361  and  _363
REMARK  151  A    between atoms: _363  and  _364
REMARK  152  A    between atoms: _363  and  _366
REMARK  153  A    between atoms: _366  and  _367
REMARK  154  A    between atoms: _370  and  _372
REMARK  155  A    between atoms: _372  and  _373
REMARK  156  A    between atoms: _372  and  _375
REMARK  157  A    between atoms: _378  and  _380
REMARK  158  A    between atoms: _380  and  _381
REMARK  159  A    between atoms: _380  and  _383
REMARK  160  A    between atoms: _383  and  _384
REMARK  161  A    between atoms: _387  and  _389
REMARK  162  A    between atoms: _389  and  _390
REMARK  163  A    between atoms: _389  and  _392
REMARK  164  A    between atoms: _392  and  _393
REMARK  165  A    between atoms: _396  and  _398
REMARK  166  A    between atoms: _398  and  _399
REMARK  167  A    between atoms: _398  and  _401
REMARK  168  A    between atoms: _401  and  _402
REMARK  169  A    between atoms: _402  and  _403
REMARK  170  A    between atoms: _403  and  _404
REMARK  171  A    between atoms: _404  and  _405
REMARK  172  A    between atoms: _409  and  _411
REMARK  173  A    between atoms: _411  and  _412
REMARK  174  A    between atoms: _411  and  _414
REMARK  175  A    between atoms: _414  and  _415
REMARK  176  A    between atoms: _425  and  _427
REMARK  177  A    between atoms: _427  and  _428
REMARK  178  A    between atoms: _427  and  _430
REMARK  179  A    between atoms: _430  and  _431
REMARK  180  A    between atoms: _431  and  _432
REMARK  181  A    between atoms: _435  and  _437
REMARK  182  A    between atoms: _437  and  _438
REMARK  183  A    between atoms: _437  and  _440
REMARK  184  A    between atoms: _440  and  _441
REMARK  185  A    between atoms: _443  and  _445
REMARK  186  A    between atoms: _445  and  _446
REMARK  187  A    between atoms: _445  and  _448
REMARK  188  A    between atoms: _448  and  _449
REMARK  189  A    between atoms: _455  and  _457
REMARK  190  A    between atoms: _457  and  _458
REMARK  191  A    between atoms: _457  and  _460
REMARK  192  A    between atoms: _460  and  _461
REMARK  193  A    between atoms: _464  and  _466
REMARK  194  A    between atoms: _466  and  _467
REMARK  195  A    between atoms: _466  and  _469
REMARK  196  A    between atoms: _472  and  _474
REMARK  197  A    between atoms: _474  and  _475
REMARK  198  A    between atoms: _477  and  _479
REMARK  199  A    between atoms: _479  and  _480
REMARK  200  A    between atoms: _479  and  _482
REMARK  201  A    between atoms: _482  and  _483
REMARK  202  A    between atoms: _486  and  _488
REMARK  203  A    between atoms: _488  and  _489
REMARK  204  A    between atoms: _488  and  _491
REMARK  205  A    between atoms: _491  and  _492
REMARK  206  A    between atoms: _492  and  _493
REMARK  207  A    between atoms: _493  and  _494
REMARK  208  A    between atoms: _494  and  _495
REMARK  209  A    between atoms: _499  and  _501
REMARK  210  A    between atoms: _501  and  _502
REMARK  211  A    between atoms: _501  and  _504
REMARK  212  A    between atoms: _507  and  _509
REMARK  213  A    between atoms: _509  and  _510
REMARK  214  A    between atoms: _509  and  _512
REMARK  215  A    between atoms: _512  and  _513
REMARK                            x       y       z     vdW  Elec       q    Type
REMARK                         _______ _______ _______ _____ _____    ______ ____
ROOT
ATOM      1  O   HOH     1       1.226   7.916  32.196  0.00  0.00    +0.000 OA
ENDROOT
TORSDOF 0
REMARK  Name = ../refined-set-2016/4cwo/4cwo_pocket.pdb
REMARK  215 active torsions:
REMARK  status: ('A' for Active; 'I' for Inactive)
REMARK    1  A    between atoms: _1  and  _3
REMARK    2  A    between atoms: _3  and  _4
REMARK    3  A    between atoms: _3  and  _6
REMARK    4  A    between atoms: _6  and  _7
REMARK    5  A    between atoms: _13  and  _15
REMARK    6  A    between atoms: _15  and  _16
REMARK    7  A    between atoms: _15  and  _18
REMARK    8  A    between atoms: _18  and  _19
REMARK    9  A    between atoms: _22  and  _24
REMARK   10  A    between atoms: _24  and  _25
REMARK   11  A    between atoms: _24  and  _27
REMARK   12  A    between atoms: _27  and  _28
REMARK   13  A    between atoms: _34  and  _36
REMARK   14  A    between atoms: _36  and  _37
REMARK   15  A    between atoms: _36  and  _39
REMARK   16  A    between atoms: _39  and  _40
REMARK   17  A    between atoms: _43  and  _45
REMARK   18  A    between atoms: _45  and  _46
REMARK   19  A    between atoms: _45  and  _48
REMARK   20  A    between atoms: _48  and  _49
REMARK   21  A    between atoms: _49  and  _50
REMARK   22  A    between atoms: _53  and  _55
REMARK   23  A    between atoms: _55  and  _56
REMARK   24  A    between atoms: _55  and  _58
REMARK   25  A    between atoms: _58  and  _59
REMARK   26  A    between atoms: _62  and  _64
REMARK   27  A    between atoms: _64  and  _65
REMARK   28  A    between atoms: _64  and  _67
REMARK   29  A    between atoms: _67  and  _68
REMARK   30  A    between atoms: _71  and  _73
REMARK   31  A    between atoms: _73  and  _74
REMARK   32  A    between atoms: _73  and  _76
REMARK   33  A    between atoms: _76  and  _77
REMARK   34  A    between atoms: _79  and  _81
REMARK   35  A    between atoms: _81  and  _82
REMARK   36  A    between atoms: _81  and  _84
REMARK   37  A    between atoms: _84  and  _85
REMARK   38  A    between atoms: _90  and  _92
REMARK   39  A    between atoms: _92  and  _93
REMARK   40  A    between atoms: _92  and  _95
REMARK   41  A    between atoms: _95  and  _96
REMARK   42  A    between atoms: _98  and  _100
REMARK   43  A    between atoms: _100  and  _101
REMARK   44  A    between atoms: _100  and  _103
REMARK   45  A    between atoms: _103  and  _104
REMARK   46  A    between atoms: _106  and  _108
REMARK   47  A    between atoms: _108  and  _109
REMARK   48  A    between atoms: _108  and  _111
REMARK   49  A    between atoms: _111  and  _112
REMARK   50  A    between atoms: _115  and  _117
REMARK   51  A    between atoms: _117  and  _118
REMARK   52  A    between atoms: _121  and  _123
REMARK   53  A    between atoms: _123  and  _124
REMARK   54  A    between atoms: _123  and  _126
REMARK   55  A    between atoms: _126  and  _127
REMARK   56  A    between atoms: _130  and  _132
REMARK   57  A    between atoms: _132  and  _133
REMARK   58  A    between atoms: _132  and  _135
REMARK   59  A    between atoms: _135  and  _136
REMARK   60  A    between atoms: _139  and  _141
REMARK   61  A    between atoms: _141  and  _142
REMARK   62  A    between atoms: _141  and  _144
REMARK   63  A    between atoms: _147  and  _149
REMARK   64  A    between atoms: _149  and  _150
REMARK   65  A    between atoms: _149  and  _152
REMARK   66  A    between atoms: _152  and  _153
REMARK   67  A    between atoms: _156  and  _158
REMARK   68  A    between atoms: _158  and  _159
REMARK   69  A    between atoms: _158  and  _161
REMARK   70  A    between atoms: _161  and  _162
REMARK   71  A    between atoms: _165  and  _167
REMARK   72  A    between atoms: _167  and  _168
REMARK   73  A    between atoms: _170  and  _172
REMARK   74  A    between atoms: _172  and  _173
REMARK   75  A    between atoms: _172  and  _175
REMARK   76  A    between atoms: _175  and  _176
REMARK   77  A    between atoms: _179  and  _181
REMARK   78  A    between atoms: _181  and  _182
REMARK   79  A    between atoms: _184  and  _186
REMARK   80  A    between atoms: _186  and  _187
REMARK   81  A    between atoms: _186  and  _189
REMARK   82  A    between atoms: _189  and  _190
REMARK   83  A    between atoms: _190  and  _191
REMARK   84  A    between atoms: _193  and  _195
REMARK   85  A    between atoms: _195  and  _196
REMARK   86  A    between atoms: _195  and  _198
REMARK   87  A    between atoms: _198  and  _199
REMARK   88  A    between atoms: _202  and  _204
REMARK   89  A    between atoms: _204  and  _205
REMARK   90  A    between atoms: _204  and  _207
REMARK   91  A    between atoms: _207  and  _208
REMARK   92  A    between atoms: _211  and  _213
REMARK   93  A    between atoms: _213  and  _214
REMARK   94  A    between atoms: _213  and  _216
REMARK   95  A    between atoms: _216  and  _217
REMARK   96  A    between atoms: _220  and  _222
REMARK   97  A    between atoms: _222  and  _223
REMARK   98  A    between atoms: _222  and  _225
REMARK   99  A    between atoms: _225  and  _226
REMARK  100  A    between atoms: _231  and  _233
REMARK  101  A    between atoms: _233  and  _234
REMARK  102  A    between atoms: _233  and  _236
REMARK  103  A    between atoms: _236  and  _237
REMARK  104  A    between atoms: _240  and  _242
REMARK  105  A    between atoms: _242  and  _243
REMARK  106  A    between atoms: _245  and  _247
REMARK  107  A    between atoms: _247  and  _248
REMARK  108  A    between atoms: _247  and  _250
REMARK  109  A    between atoms: _250  and  _251
REMARK  110  A    between atoms: _254  and  _256
REMARK  111  A    between atoms: _256  and  _257
REMARK  112  A    between atoms: _260  and  _262
REMARK  113  A    between atoms: _262  and  _263
REMARK  114  A    between atoms: _262  and  _265
REMARK  115  A    between atoms: _265  and  _266
REMARK  116  A    between atoms: _269  and  _271
REMARK  117  A    between atoms: _271  and  _272
REMARK  118  A    between atoms: _271  and  _274
REMARK  119  A    between atoms: _274  and  _275
REMARK  120  A    between atoms: _281  and  _283
REMARK  121  A    between atoms: _283  and  _284
REMARK  122  A    between atoms: _286  and  _288
REMARK  123  A    between atoms: _288  and  _289
REMARK  124  A    between atoms: _288  and  _291
REMARK  125  A    between atoms: _294  and  _296
REMARK  126  A    between atoms: _296  and  _297
REMARK  127  A    between atoms: _299  and  _301
REMARK  128  A    between atoms: _301  and  _302
REMARK  129  A    between atoms: _301  and  _304
REMARK  130  A    between atoms: _304  and  _305
REMARK  131  A    between atoms: _311  and  _313
REMARK  132  A    between atoms: _313  and  _314
REMARK  133  A    between atoms: _313  and  _316
REMARK  134  A    between atoms: _316  and  _317
REMARK  135  A    between atoms: _322  and  _323
REMARK  136  A    between atoms: _325  and  _327
REMARK  137  A    between atoms: _327  and  _328
REMARK  138  A    between atoms: _327  and  _330
REMARK  139  A    between atoms: _330  and  _331
REMARK  140  A    between atoms: _333  and  _335
REMARK  141  A    between atoms: _335  and  _336
REMARK  142  A    between atoms: _339  and  _341
REMARK  143  A    between atoms: _341  and  _342
REMARK  144  A    between atoms: _341  and  _344
REMARK  145  A    between atoms: _344  and  _345
REMARK  146  A    between atoms: _350  and  _351
REMARK  147  A    between atoms: _353  and  _355
REMARK  148  A    between atoms: _355  and  _356
REMARK  149  A    between atoms: _355  and  _358
REMARK  150  A    between atoms: _361  and  _363
REMARK  151  A    between atoms: _363  and  _364
REMARK  152  A    between atoms: _363  and  _366
REMARK  153  A    between atoms: _366  and  _367
REMARK  154  A    between atoms: _370  and  _372
REMARK  155  A    between atoms: _372  and  _373
REMARK  156  A    between atoms: _372  and  _375
REMARK  157  A    between atoms: _378  and  _380
REMARK  158  A    between atoms: _380  and  _381
REMARK  159  A    between atoms: _380  and  _383
REMARK  160  A    between atoms: _383  and  _384
REMARK  161  A    between atoms: _387  and  _389
REMARK  162  A    between atoms: _389  and  _390
REMARK  163  A    between atoms: _389  and  _392
REMARK  164  A    between atoms: _392  and  _393
REMARK  165  A    between atoms: _396  and  _398
REMARK  166  A    between atoms: _398  and  _399
REMARK  167  A    between atoms: _398  and  _401
REMARK  168  A    between atoms: _401  and  _402
REMARK  169  A    between atoms: _402  and  _403
REMARK  170  A    between atoms: _403  and  _404
REMARK  171  A    between atoms: _404  and  _405
REMARK  172  A    between atoms: _409  and  _411
REMARK  173  A    between atoms: _411  and  _412
REMARK  174  A    between atoms: _411  and  _414
REMARK  175  A    between atoms: _414  and  _415
REMARK  176  A    between atoms: _425  and  _427
REMARK  177  A    between atoms: _427  and  _428
REMARK  178  A    between atoms: _427  and  _430
REMARK  179  A    between atoms: _430  and  _431
REMARK  180  A    between atoms: _431  and  _432
REMARK  181  A    between atoms: _435  and  _437
REMARK  182  A    between atoms: _437  and  _438
REMARK  183  A    between atoms: _437  and  _440
REMARK  184  A    between atoms: _440  and  _441
REMARK  185  A    between atoms: _443  and  _445
REMARK  186  A    between atoms: _445  and  _446
REMARK  187  A    between atoms: _445  and  _448
REMARK  188  A    between atoms: _448  and  _449
REMARK  189  A    between atoms: _455  and  _457
REMARK  190  A    between atoms: _457  and  _458
REMARK  191  A    between atoms: _457  and  _460
REMARK  192  A    between atoms: _460  and  _461
REMARK  193  A    between atoms: _464  and  _466
REMARK  194  A    between atoms: _466  and  _467
REMARK  195  A    between atoms: _466  and  _469
REMARK  196  A    between atoms: _472  and  _474
REMARK  197  A    between atoms: _474  and  _475
REMARK  198  A    between atoms: _477  and  _479
REMARK  199  A    between atoms: _479  and  _480
REMARK  200  A    between atoms: _479  and  _482
REMARK  201  A    between atoms: _482  and  _483
REMARK  202  A    between atoms: _486  and  _488
REMARK  203  A    between atoms: _488  and  _489
REMARK  204  A    between atoms: _488  and  _491
REMARK  205  A    between atoms: _491  and  _492
REMARK  206  A    between atoms: _492  and  _493
REMARK  207  A    between atoms: _493  and  _494
REMARK  208  A    between atoms: _494  and  _495
REMARK  209  A    between atoms: _499  and  _501
REMARK  210  A    between atoms: _501  and  _502
REMARK  211  A    between atoms: _501  and  _504
REMARK  212  A    between atoms: _507  and  _509
REMARK  213  A    between atoms: _509  and  _510
REMARK  214  A    between atoms: _509  and  _512
REMARK  215  A    between atoms: _512  and  _513
REMARK                            x       y       z     vdW  Elec       q    Type
REMARK                         _______ _______ _______ _____ _____    ______ ____
ROOT
ATOM      1  O   HOH     1      10.627  12.671  29.406  0.00  0.00    +0.000 OA
ENDROOT
TORSDOF 0
REMARK  Name = ../refined-set-2016/4cwo/4cwo_pocket.pdb
REMARK  215 active torsions:
REMARK  status: ('A' for Active; 'I' for Inactive)
REMARK    1  A    between atoms: _1  and  _3
REMARK    2  A    between atoms: _3  and  _4
REMARK    3  A    between atoms: _3  and  _6
REMARK    4  A    between atoms: _6  and  _7
REMARK    5  A    between atoms: _13  and  _15
REMARK    6  A    between atoms: _15  and  _16
REMARK    7  A    between atoms: _15  and  _18
REMARK    8  A    between atoms: _18  and  _19
REMARK    9  A    between atoms: _22  and  _24
REMARK   10  A    between atoms: _24  and  _25
REMARK   11  A    between atoms: _24  and  _27
REMARK   12  A    between atoms: _27  and  _28
REMARK   13  A    between atoms: _34  and  _36
REMARK   14  A    between atoms: _36  and  _37
REMARK   15  A    between atoms: _36  and  _39
REMARK   16  A    between atoms: _39  and  _40
REMARK   17  A    between atoms: _43  and  _45
REMARK   18  A    between atoms: _45  and  _46
REMARK   19  A    between atoms: _45  and  _48
REMARK   20  A    between atoms: _48  and  _49
REMARK   21  A    between atoms: _49  and  _50
REMARK   22  A    between atoms: _53  and  _55
REMARK   23  A    between atoms: _55  and  _56
REMARK   24  A    between atoms: _55  and  _58
REMARK   25  A    between atoms: _58  and  _59
REMARK   26  A    between atoms: _62  and  _64
REMARK   27  A    between atoms: _64  and  _65
REMARK   28  A    between atoms: _64  and  _67
REMARK   29  A    between atoms: _67  and  _68
REMARK   30  A    between atoms: _71  and  _73
REMARK   31  A    between atoms: _73  and  _74
REMARK   32  A    between atoms: _73  and  _76
REMARK   33  A    between atoms: _76  and  _77
REMARK   34  A    between atoms: _79  and  _81
REMARK   35  A    between atoms: _81  and  _82
REMARK   36  A    between atoms: _81  and  _84
REMARK   37  A    between atoms: _84  and  _85
REMARK   38  A    between atoms: _90  and  _92
REMARK   39  A    between atoms: _92  and  _93
REMARK   40  A    between atoms: _92  and  _95
REMARK   41  A    between atoms: _95  and  _96
REMARK   42  A    between atoms: _98  and  _100
REMARK   43  A    between atoms: _100  and  _101
REMARK   44  A    between atoms: _100  and  _103
REMARK   45  A    between atoms: _103  and  _104
REMARK   46  A    between atoms: _106  and  _108
REMARK   47  A    between atoms: _108  and  _109
REMARK   48  A    between atoms: _108  and  _111
REMARK   49  A    between atoms: _111  and  _112
REMARK   50  A    between atoms: _115  and  _117
REMARK   51  A    between atoms: _117  and  _118
REMARK   52  A    between atoms: _121  and  _123
REMARK   53  A    between atoms: _123  and  _124
REMARK   54  A    between atoms: _123  and  _126
REMARK   55  A    between atoms: _126  and  _127
REMARK   56  A    between atoms: _130  and  _132
REMARK   57  A    between atoms: _132  and  _133
REMARK   58  A    between atoms: _132  and  _135
REMARK   59  A    between atoms: _135  and  _136
REMARK   60  A    between atoms: _139  and  _141
REMARK   61  A    between atoms: _141  and  _142
REMARK   62  A    between atoms: _141  and  _144
REMARK   63  A    between atoms: _147  and  _149
REMARK   64  A    between atoms: _149  and  _150
REMARK   65  A    between atoms: _149  and  _152
REMARK   66  A    between atoms: _152  and  _153
REMARK   67  A    between atoms: _156  and  _158
REMARK   68  A    between atoms: _158  and  _159
REMARK   69  A    between atoms: _158  and  _161
REMARK   70  A    between atoms: _161  and  _162
REMARK   71  A    between atoms: _165  and  _167
REMARK   72  A    between atoms: _167  and  _168
REMARK   73  A    between atoms: _170  and  _172
REMARK   74  A    between atoms: _172  and  _173
REMARK   75  A    between atoms: _172  and  _175
REMARK   76  A    between atoms: _175  and  _176
REMARK   77  A    between atoms: _179  and  _181
REMARK   78  A    between atoms: _181  and  _182
REMARK   79  A    between atoms: _184  and  _186
REMARK   80  A    between atoms: _186  and  _187
REMARK   81  A    between atoms: _186  and  _189
REMARK   82  A    between atoms: _189  and  _190
REMARK   83  A    between atoms: _190  and  _191
REMARK   84  A    between atoms: _193  and  _195
REMARK   85  A    between atoms: _195  and  _196
REMARK   86  A    between atoms: _195  and  _198
REMARK   87  A    between atoms: _198  and  _199
REMARK   88  A    between atoms: _202  and  _204
REMARK   89  A    between atoms: _204  and  _205
REMARK   90  A    between atoms: _204  and  _207
REMARK   91  A    between atoms: _207  and  _208
REMARK   92  A    between atoms: _211  and  _213
REMARK   93  A    between atoms: _213  and  _214
REMARK   94  A    between atoms: _213  and  _216
REMARK   95  A    between atoms: _216  and  _217
REMARK   96  A    between atoms: _220  and  _222
REMARK   97  A    between atoms: _222  and  _223
REMARK   98  A    between atoms: _222  and  _225
REMARK   99  A    between atoms: _225  and  _226
REMARK  100  A    between atoms: _231  and  _233
REMARK  101  A    between atoms: _233  and  _234
REMARK  102  A    between atoms: _233  and  _236
REMARK  103  A    between atoms: _236  and  _237
REMARK  104  A    between atoms: _240  and  _242
REMARK  105  A    between atoms: _242  and  _243
REMARK  106  A    between atoms: _245  and  _247
REMARK  107  A    between atoms: _247  and  _248
REMARK  108  A    between atoms: _247  and  _250
REMARK  109  A    between atoms: _250  and  _251
REMARK  110  A    between atoms: _254  and  _256
REMARK  111  A    between atoms: _256  and  _257
REMARK  112  A    between atoms: _260  and  _262
REMARK  113  A    between atoms: _262  and  _263
REMARK  114  A    between atoms: _262  and  _265
REMARK  115  A    between atoms: _265  and  _266
REMARK  116  A    between atoms: _269  and  _271
REMARK  117  A    between atoms: _271  and  _272
REMARK  118  A    between atoms: _271  and  _274
REMARK  119  A    between atoms: _274  and  _275
REMARK  120  A    between atoms: _281  and  _283
REMARK  121  A    between atoms: _283  and  _284
REMARK  122  A    between atoms: _286  and  _288
REMARK  123  A    between atoms: _288  and  _289
REMARK  124  A    between atoms: _288  and  _291
REMARK  125  A    between atoms: _294  and  _296
REMARK  126  A    between atoms: _296  and  _297
REMARK  127  A    between atoms: _299  and  _301
REMARK  128  A    between atoms: _301  and  _302
REMARK  129  A    between atoms: _301  and  _304
REMARK  130  A    between atoms: _304  and  _305
REMARK  131  A    between atoms: _311  and  _313
REMARK  132  A    between atoms: _313  and  _314
REMARK  133  A    between atoms: _313  and  _316
REMARK  134  A    between atoms: _316  and  _317
REMARK  135  A    between atoms: _322  and  _323
REMARK  136  A    between atoms: _325  and  _327
REMARK  137  A    between atoms: _327  and  _328
REMARK  138  A    between atoms: _327  and  _330
REMARK  139  A    between atoms: _330  and  _331
REMARK  140  A    between atoms: _333  and  _335
REMARK  141  A    between atoms: _335  and  _336
REMARK  142  A    between atoms: _339  and  _341
REMARK  143  A    between atoms: _341  and  _342
REMARK  144  A    between atoms: _341  and  _344
REMARK  145  A    between atoms: _344  and  _345
REMARK  146  A    between atoms: _350  and  _351
REMARK  147  A    between atoms: _353  and  _355
REMARK  148  A    between atoms: _355  and  _356
REMARK  149  A    between atoms: _355  and  _358
REMARK  150  A    between atoms: _361  and  _363
REMARK  151  A    between atoms: _363  and  _364
REMARK  152  A    between atoms: _363  and  _366
REMARK  153  A    between atoms: _366  and  _367
REMARK  154  A    between atoms: _370  and  _372
REMARK  155  A    between atoms: _372  and  _373
REMARK  156  A    between atoms: _372  and  _375
REMARK  157  A    between atoms: _378  and  _380
REMARK  158  A    between atoms: _380  and  _381
REMARK  159  A    between atoms: _380  and  _383
REMARK  160  A    between atoms: _383  and  _384
REMARK  161  A    between atoms: _387  and  _389
REMARK  162  A    between atoms: _389  and  _390
REMARK  163  A    between atoms: _389  and  _392
REMARK  164  A    between atoms: _392  and  _393
REMARK  165  A    between atoms: _396  and  _398
REMARK  166  A    between atoms: _398  and  _399
REMARK  167  A    between atoms: _398  and  _401
REMARK  168  A    between atoms: _401  and  _402
REMARK  169  A    between atoms: _402  and  _403
REMARK  170  A    between atoms: _403  and  _404
REMARK  171  A    between atoms: _404  and  _405
REMARK  172  A    between atoms: _409  and  _411
REMARK  173  A    between atoms: _411  and  _412
REMARK  174  A    between atoms: _411  and  _414
REMARK  175  A    between atoms: _414  and  _415
REMARK  176  A    between atoms: _425  and  _427
REMARK  177  A    between atoms: _427  and  _428
REMARK  178  A    between atoms: _427  and  _430
REMARK  179  A    between atoms: _430  and  _431
REMARK  180  A    between atoms: _431  and  _432
REMARK  181  A    between atoms: _435  and  _437
REMARK  182  A    between atoms: _437  and  _438
REMARK  183  A    between atoms: _437  and  _440
REMARK  184  A    between atoms: _440  and  _441
REMARK  185  A    between atoms: _443  and  _445
REMARK  186  A    between atoms: _445  and  _446
REMARK  187  A    between atoms: _445  and  _448
REMARK  188  A    between atoms: _448  and  _449
REMARK  189  A    between atoms: _455  and  _457
REMARK  190  A    between atoms: _457  and  _458
REMARK  191  A    between atoms: _457  and  _460
REMARK  192  A    between atoms: _460  and  _461
REMARK  193  A    between atoms: _464  and  _466
REMARK  194  A    between atoms: _466  and  _467
REMARK  195  A    between atoms: _466  and  _469
REMARK  196  A    between atoms: _472  and  _474
REMARK  197  A    between atoms: _474  and  _475
REMARK  198  A    between atoms: _477  and  _479
REMARK  199  A    between atoms: _479  and  _480
REMARK  200  A    between atoms: _479  and  _482
REMARK  201  A    between atoms: _482  and  _483
REMARK  202  A    between atoms: _486  and  _488
REMARK  203  A    between atoms: _488  and  _489
REMARK  204  A    between atoms: _488  and  _491
REMARK  205  A    between atoms: _491  and  _492
REMARK  206  A    between atoms: _492  and  _493
REMARK  207  A    between atoms: _493  and  _494
REMARK  208  A    between atoms: _494  and  _495
REMARK  209  A    between atoms: _499  and  _501
REMARK  210  A    between atoms: _501  and  _502
REMARK  211  A    between atoms: _501  and  _504
REMARK  212  A    between atoms: _507  and  _509
REMARK  213  A    between atoms: _509  and  _510
REMARK  214  A    between atoms: _509  and  _512
REMARK  215  A    between atoms: _512  and  _513
REMARK                            x       y       z     vdW  Elec       q    Type
REMARK                         _______ _______ _______ _____ _____    ______ ____
ROOT
ATOM      1  O   HOH     1      10.091  15.997  27.700  0.00  0.00    +0.000 OA
ENDROOT
TORSDOF 0
REMARK  Name = ../refined-set-2016/4cwo/4cwo_pocket.pdb
REMARK  215 active torsions:
REMARK  status: ('A' for Active; 'I' for Inactive)
REMARK    1  A    between atoms: _1  and  _3
REMARK    2  A    between atoms: _3  and  _4
REMARK    3  A    between atoms: _3  and  _6
REMARK    4  A    between atoms: _6  and  _7
REMARK    5  A    between atoms: _13  and  _15
REMARK    6  A    between atoms: _15  and  _16
REMARK    7  A    between atoms: _15  and  _18
REMARK    8  A    between atoms: _18  and  _19
REMARK    9  A    between atoms: _22  and  _24
REMARK   10  A    between atoms: _24  and  _25
REMARK   11  A    between atoms: _24  and  _27
REMARK   12  A    between atoms: _27  and  _28
REMARK   13  A    between atoms: _34  and  _36
REMARK   14  A    between atoms: _36  and  _37
REMARK   15  A    between atoms: _36  and  _39
REMARK   16  A    between atoms: _39  and  _40
REMARK   17  A    between atoms: _43  and  _45
REMARK   18  A    between atoms: _45  and  _46
REMARK   19  A    between atoms: _45  and  _48
REMARK   20  A    between atoms: _48  and  _49
REMARK   21  A    between atoms: _49  and  _50
REMARK   22  A    between atoms: _53  and  _55
REMARK   23  A    between atoms: _55  and  _56
REMARK   24  A    between atoms: _55  and  _58
REMARK   25  A    between atoms: _58  and  _59
REMARK   26  A    between atoms: _62  and  _64
REMARK   27  A    between atoms: _64  and  _65
REMARK   28  A    between atoms: _64  and  _67
REMARK   29  A    between atoms: _67  and  _68
REMARK   30  A    between atoms: _71  and  _73
REMARK   31  A    between atoms: _73  and  _74
REMARK   32  A    between atoms: _73  and  _76
REMARK   33  A    between atoms: _76  and  _77
REMARK   34  A    between atoms: _79  and  _81
REMARK   35  A    between atoms: _81  and  _82
REMARK   36  A    between atoms: _81  and  _84
REMARK   37  A    between atoms: _84  and  _85
REMARK   38  A    between atoms: _90  and  _92
REMARK   39  A    between atoms: _92  and  _93
REMARK   40  A    between atoms: _92  and  _95
REMARK   41  A    between atoms: _95  and  _96
REMARK   42  A    between atoms: _98  and  _100
REMARK   43  A    between atoms: _100  and  _101
REMARK   44  A    between atoms: _100  and  _103
REMARK   45  A    between atoms: _103  and  _104
REMARK   46  A    between atoms: _106  and  _108
REMARK   47  A    between atoms: _108  and  _109
REMARK   48  A    between atoms: _108  and  _111
REMARK   49  A    between atoms: _111  and  _112
REMARK   50  A    between atoms: _115  and  _117
REMARK   51  A    between atoms: _117  and  _118
REMARK   52  A    between atoms: _121  and  _123
REMARK   53  A    between atoms: _123  and  _124
REMARK   54  A    between atoms: _123  and  _126
REMARK   55  A    between atoms: _126  and  _127
REMARK   56  A    between atoms: _130  and  _132
REMARK   57  A    between atoms: _132  and  _133
REMARK   58  A    between atoms: _132  and  _135
REMARK   59  A    between atoms: _135  and  _136
REMARK   60  A    between atoms: _139  and  _141
REMARK   61  A    between atoms: _141  and  _142
REMARK   62  A    between atoms: _141  and  _144
REMARK   63  A    between atoms: _147  and  _149
REMARK   64  A    between atoms: _149  and  _150
REMARK   65  A    between atoms: _149  and  _152
REMARK   66  A    between atoms: _152  and  _153
REMARK   67  A    between atoms: _156  and  _158
REMARK   68  A    between atoms: _158  and  _159
REMARK   69  A    between atoms: _158  and  _161
REMARK   70  A    between atoms: _161  and  _162
REMARK   71  A    between atoms: _165  and  _167
REMARK   72  A    between atoms: _167  and  _168
REMARK   73  A    between atoms: _170  and  _172
REMARK   74  A    between atoms: _172  and  _173
REMARK   75  A    between atoms: _172  and  _175
REMARK   76  A    between atoms: _175  and  _176
REMARK   77  A    between atoms: _179  and  _181
REMARK   78  A    between atoms: _181  and  _182
REMARK   79  A    between atoms: _184  and  _186
REMARK   80  A    between atoms: _186  and  _187
REMARK   81  A    between atoms: _186  and  _189
REMARK   82  A    between atoms: _189  and  _190
REMARK   83  A    between atoms: _190  and  _191
REMARK   84  A    between atoms: _193  and  _195
REMARK   85  A    between atoms: _195  and  _196
REMARK   86  A    between atoms: _195  and  _198
REMARK   87  A    between atoms: _198  and  _199
REMARK   88  A    between atoms: _202  and  _204
REMARK   89  A    between atoms: _204  and  _205
REMARK   90  A    between atoms: _204  and  _207
REMARK   91  A    between atoms: _207  and  _208
REMARK   92  A    between atoms: _211  and  _213
REMARK   93  A    between atoms: _213  and  _214
REMARK   94  A    between atoms: _213  and  _216
REMARK   95  A    between atoms: _216  and  _217
REMARK   96  A    between atoms: _220  and  _222
REMARK   97  A    between atoms: _222  and  _223
REMARK   98  A    between atoms: _222  and  _225
REMARK   99  A    between atoms: _225  and  _226
REMARK  100  A    between atoms: _231  and  _233
REMARK  101  A    between atoms: _233  and  _234
REMARK  102  A    between atoms: _233  and  _236
REMARK  103  A    between atoms: _236  and  _237
REMARK  104  A    between atoms: _240  and  _242
REMARK  105  A    between atoms: _242  and  _243
REMARK  106  A    between atoms: _245  and  _247
REMARK  107  A    between atoms: _247  and  _248
REMARK  108  A    between atoms: _247  and  _250
REMARK  109  A    between atoms: _250  and  _251
REMARK  110  A    between atoms: _254  and  _256
REMARK  111  A    between atoms: _256  and  _257
REMARK  112  A    between atoms: _260  and  _262
REMARK  113  A    between atoms: _262  and  _263
REMARK  114  A    between atoms: _262  and  _265
REMARK  115  A    between atoms: _265  and  _266
REMARK  116  A    between atoms: _269  and  _271
REMARK  117  A    between atoms: _271  and  _272
REMARK  118  A    between atoms: _271  and  _274
REMARK  119  A    between atoms: _274  and  _275
REMARK  120  A    between atoms: _281  and  _283
REMARK  121  A    between atoms: _283  and  _284
REMARK  122  A    between atoms: _286  and  _288
REMARK  123  A    between atoms: _288  and  _289
REMARK  124  A    between atoms: _288  and  _291
REMARK  125  A    between atoms: _294  and  _296
REMARK  126  A    between atoms: _296  and  _297
REMARK  127  A    between atoms: _299  and  _301
REMARK  128  A    between atoms: _301  and  _302
REMARK  129  A    between atoms: _301  and  _304
REMARK  130  A    between atoms: _304  and  _305
REMARK  131  A    between atoms: _311  and  _313
REMARK  132  A    between atoms: _313  and  _314
REMARK  133  A    between atoms: _313  and  _316
REMARK  134  A    between atoms: _316  and  _317
REMARK  135  A    between atoms: _322  and  _323
REMARK  136  A    between atoms: _325  and  _327
REMARK  137  A    between atoms: _327  and  _328
REMARK  138  A    between atoms: _327  and  _330
REMARK  139  A    between atoms: _330  and  _331
REMARK  140  A    between atoms: _333  and  _335
REMARK  141  A    between atoms: _335  and  _336
REMARK  142  A    between atoms: _339  and  _341
REMARK  143  A    between atoms: _341  and  _342
REMARK  144  A    between atoms: _341  and  _344
REMARK  145  A    between atoms: _344  and  _345
REMARK  146  A    between atoms: _350  and  _351
REMARK  147  A    between atoms: _353  and  _355
REMARK  148  A    between atoms: _355  and  _356
REMARK  149  A    between atoms: _355  and  _358
REMARK  150  A    between atoms: _361  and  _363
REMARK  151  A    between atoms: _363  and  _364
REMARK  152  A    between atoms: _363  and  _366
REMARK  153  A    between atoms: _366  and  _367
REMARK  154  A    between atoms: _370  and  _372
REMARK  155  A    between atoms: _372  and  _373
REMARK  156  A    between atoms: _372  and  _375
REMARK  157  A    between atoms: _378  and  _380
REMARK  158  A    between atoms: _380  and  _381
REMARK  159  A    between atoms: _380  and  _383
REMARK  160  A    between atoms: _383  and  _384
REMARK  161  A    between atoms: _387  and  _389
REMARK  162  A    between atoms: _389  and  _390
REMARK  163  A    between atoms: _389  and  _392
REMARK  164  A    between atoms: _392  and  _393
REMARK  165  A    between atoms: _396  and  _398
REMARK  166  A    between atoms: _398  and  _399
REMARK  167  A    between atoms: _398  and  _401
REMARK  168  A    between atoms: _401  and  _402
REMARK  169  A    between atoms: _402  and  _403
REMARK  170  A    between atoms: _403  and  _404
REMARK  171  A    between atoms: _404  and  _405
REMARK  172  A    between atoms: _409  and  _411
REMARK  173  A    between atoms: _411  and  _412
REMARK  174  A    between atoms: _411  and  _414
REMARK  175  A    between atoms: _414  and  _415
REMARK  176  A    between atoms: _425  and  _427
REMARK  177  A    between atoms: _427  and  _428
REMARK  178  A    between atoms: _427  and  _430
REMARK  179  A    between atoms: _430  and  _431
REMARK  180  A    between atoms: _431  and  _432
REMARK  181  A    between atoms: _435  and  _437
REMARK  182  A    between atoms: _437  and  _438
REMARK  183  A    between atoms: _437  and  _440
REMARK  184  A    between atoms: _440  and  _441
REMARK  185  A    between atoms: _443  and  _445
REMARK  186  A    between atoms: _445  and  _446
REMARK  187  A    between atoms: _445  and  _448
REMARK  188  A    between atoms: _448  and  _449
REMARK  189  A    between atoms: _455  and  _457
REMARK  190  A    between atoms: _457  and  _458
REMARK  191  A    between atoms: _457  and  _460
REMARK  192  A    between atoms: _460  and  _461
REMARK  193  A    between atoms: _464  and  _466
REMARK  194  A    between atoms: _466  and  _467
REMARK  195  A    between atoms: _466  and  _469
REMARK  196  A    between atoms: _472  and  _474
REMARK  197  A    between atoms: _474  and  _475
REMARK  198  A    between atoms: _477  and  _479
REMARK  199  A    between atoms: _479  and  _480
REMARK  200  A    between atoms: _479  and  _482
REMARK  201  A    between atoms: _482  and  _483
REMARK  202  A    between atoms: _486  and  _488
REMARK  203  A    between atoms: _488  and  _489
REMARK  204  A    between atoms: _488  and  _491
REMARK  205  A    between atoms: _491  and  _492
REMARK  206  A    between atoms: _492  and  _493
REMARK  207  A    between atoms: _493  and  _494
REMARK  208  A    between atoms: _494  and  _495
REMARK  209  A    between atoms: _499  and  _501
REMARK  210  A    between atoms: _501  and  _502
REMARK  211  A    between atoms: _501  and  _504
REMARK  212  A    between atoms: _507  and  _509
REMARK  213  A    between atoms: _509  and  _510
REMARK  214  A    between atoms: _509  and  _512
REMARK  215  A    between atoms: _512  and  _513
REMARK                            x       y       z     vdW  Elec       q    Type
REMARK                         _______ _______ _______ _____ _____    ______ ____
ROOT
ATOM      1  O   HOH     1       9.281  10.829  23.992  0.00  0.00    +0.000 OA
ENDROOT
TORSDOF 0
REMARK  Name = ../refined-set-2016/4cwo/4cwo_pocket.pdb
REMARK  215 active torsions:
REMARK  status: ('A' for Active; 'I' for Inactive)
REMARK    1  A    between atoms: _1  and  _3
REMARK    2  A    between atoms: _3  and  _4
REMARK    3  A    between atoms: _3  and  _6
REMARK    4  A    between atoms: _6  and  _7
REMARK    5  A    between atoms: _13  and  _15
REMARK    6  A    between atoms: _15  and  _16
REMARK    7  A    between atoms: _15  and  _18
REMARK    8  A    between atoms: _18  and  _19
REMARK    9  A    between atoms: _22  and  _24
REMARK   10  A    between atoms: _24  and  _25
REMARK   11  A    between atoms: _24  and  _27
REMARK   12  A    between atoms: _27  and  _28
REMARK   13  A    between atoms: _34  and  _36
REMARK   14  A    between atoms: _36  and  _37
REMARK   15  A    between atoms: _36  and  _39
REMARK   16  A    between atoms: _39  and  _40
REMARK   17  A    between atoms: _43  and  _45
REMARK   18  A    between atoms: _45  and  _46
REMARK   19  A    between atoms: _45  and  _48
REMARK   20  A    between atoms: _48  and  _49
REMARK   21  A    between atoms: _49  and  _50
REMARK   22  A    between atoms: _53  and  _55
REMARK   23  A    between atoms: _55  and  _56
REMARK   24  A    between atoms: _55  and  _58
REMARK   25  A    between atoms: _58  and  _59
REMARK   26  A    between atoms: _62  and  _64
REMARK   27  A    between atoms: _64  and  _65
REMARK   28  A    between atoms: _64  and  _67
REMARK   29  A    between atoms: _67  and  _68
REMARK   30  A    between atoms: _71  and  _73
REMARK   31  A    between atoms: _73  and  _74
REMARK   32  A    between atoms: _73  and  _76
REMARK   33  A    between atoms: _76  and  _77
REMARK   34  A    between atoms: _79  and  _81
REMARK   35  A    between atoms: _81  and  _82
REMARK   36  A    between atoms: _81  and  _84
REMARK   37  A    between atoms: _84  and  _85
REMARK   38  A    between atoms: _90  and  _92
REMARK   39  A    between atoms: _92  and  _93
REMARK   40  A    between atoms: _92  and  _95
REMARK   41  A    between atoms: _95  and  _96
REMARK   42  A    between atoms: _98  and  _100
REMARK   43  A    between atoms: _100  and  _101
REMARK   44  A    between atoms: _100  and  _103
REMARK   45  A    between atoms: _103  and  _104
REMARK   46  A    between atoms: _106  and  _108
REMARK   47  A    between atoms: _108  and  _109
REMARK   48  A    between atoms: _108  and  _111
REMARK   49  A    between atoms: _111  and  _112
REMARK   50  A    between atoms: _115  and  _117
REMARK   51  A    between atoms: _117  and  _118
REMARK   52  A    between atoms: _121  and  _123
REMARK   53  A    between atoms: _123  and  _124
REMARK   54  A    between atoms: _123  and  _126
REMARK   55  A    between atoms: _126  and  _127
REMARK   56  A    between atoms: _130  and  _132
REMARK   57  A    between atoms: _132  and  _133
REMARK   58  A    between atoms: _132  and  _135
REMARK   59  A    between atoms: _135  and  _136
REMARK   60  A    between atoms: _139  and  _141
REMARK   61  A    between atoms: _141  and  _142
REMARK   62  A    between atoms: _141  and  _144
REMARK   63  A    between atoms: _147  and  _149
REMARK   64  A    between atoms: _149  and  _150
REMARK   65  A    between atoms: _149  and  _152
REMARK   66  A    between atoms: _152  and  _153
REMARK   67  A    between atoms: _156  and  _158
REMARK   68  A    between atoms: _158  and  _159
REMARK   69  A    between atoms: _158  and  _161
REMARK   70  A    between atoms: _161  and  _162
REMARK   71  A    between atoms: _165  and  _167
REMARK   72  A    between atoms: _167  and  _168
REMARK   73  A    between atoms: _170  and  _172
REMARK   74  A    between atoms: _172  and  _173
REMARK   75  A    between atoms: _172  and  _175
REMARK   76  A    between atoms: _175  and  _176
REMARK   77  A    between atoms: _179  and  _181
REMARK   78  A    between atoms: _181  and  _182
REMARK   79  A    between atoms: _184  and  _186
REMARK   80  A    between atoms: _186  and  _187
REMARK   81  A    between atoms: _186  and  _189
REMARK   82  A    between atoms: _189  and  _190
REMARK   83  A    between atoms: _190  and  _191
REMARK   84  A    between atoms: _193  and  _195
REMARK   85  A    between atoms: _195  and  _196
REMARK   86  A    between atoms: _195  and  _198
REMARK   87  A    between atoms: _198  and  _199
REMARK   88  A    between atoms: _202  and  _204
REMARK   89  A    between atoms: _204  and  _205
REMARK   90  A    between atoms: _204  and  _207
REMARK   91  A    between atoms: _207  and  _208
REMARK   92  A    between atoms: _211  and  _213
REMARK   93  A    between atoms: _213  and  _214
REMARK   94  A    between atoms: _213  and  _216
REMARK   95  A    between atoms: _216  and  _217
REMARK   96  A    between atoms: _220  and  _222
REMARK   97  A    between atoms: _222  and  _223
REMARK   98  A    between atoms: _222  and  _225
REMARK   99  A    between atoms: _225  and  _226
REMARK  100  A    between atoms: _231  and  _233
REMARK  101  A    between atoms: _233  and  _234
REMARK  102  A    between atoms: _233  and  _236
REMARK  103  A    between atoms: _236  and  _237
REMARK  104  A    between atoms: _240  and  _242
REMARK  105  A    between atoms: _242  and  _243
REMARK  106  A    between atoms: _245  and  _247
REMARK  107  A    between atoms: _247  and  _248
REMARK  108  A    between atoms: _247  and  _250
REMARK  109  A    between atoms: _250  and  _251
REMARK  110  A    between atoms: _254  and  _256
REMARK  111  A    between atoms: _256  and  _257
REMARK  112  A    between atoms: _260  and  _262
REMARK  113  A    between atoms: _262  and  _263
REMARK  114  A    between atoms: _262  and  _265
REMARK  115  A    between atoms: _265  and  _266
REMARK  116  A    between atoms: _269  and  _271
REMARK  117  A    between atoms: _271  and  _272
REMARK  118  A    between atoms: _271  and  _274
REMARK  119  A    between atoms: _274  and  _275
REMARK  120  A    between atoms: _281  and  _283
REMARK  121  A    between atoms: _283  and  _284
REMARK  122  A    between atoms: _286  and  _288
REMARK  123  A    between atoms: _288  and  _289
REMARK  124  A    between atoms: _288  and  _291
REMARK  125  A    between atoms: _294  and  _296
REMARK  126  A    between atoms: _296  and  _297
REMARK  127  A    between atoms: _299  and  _301
REMARK  128  A    between atoms: _301  and  _302
REMARK  129  A    between atoms: _301  and  _304
REMARK  130  A    between atoms: _304  and  _305
REMARK  131  A    between atoms: _311  and  _313
REMARK  132  A    between atoms: _313  and  _314
REMARK  133  A    between atoms: _313  and  _316
REMARK  134  A    between atoms: _316  and  _317
REMARK  135  A    between atoms: _322  and  _323
REMARK  136  A    between atoms: _325  and  _327
REMARK  137  A    between atoms: _327  and  _328
REMARK  138  A    between atoms: _327  and  _330
REMARK  139  A    between atoms: _330  and  _331
REMARK  140  A    between atoms: _333  and  _335
REMARK  141  A    between atoms: _335  and  _336
REMARK  142  A    between atoms: _339  and  _341
REMARK  143  A    between atoms: _341  and  _342
REMARK  144  A    between atoms: _341  and  _344
REMARK  145  A    between atoms: _344  and  _345
REMARK  146  A    between atoms: _350  and  _351
REMARK  147  A    between atoms: _353  and  _355
REMARK  148  A    between atoms: _355  and  _356
REMARK  149  A    between atoms: _355  and  _358
REMARK  150  A    between atoms: _361  and  _363
REMARK  151  A    between atoms: _363  and  _364
REMARK  152  A    between atoms: _363  and  _366
REMARK  153  A    between atoms: _366  and  _367
REMARK  154  A    between atoms: _370  and  _372
REMARK  155  A    between atoms: _372  and  _373
REMARK  156  A    between atoms: _372  and  _375
REMARK  157  A    between atoms: _378  and  _380
REMARK  158  A    between atoms: _380  and  _381
REMARK  159  A    between atoms: _380  and  _383
REMARK  160  A    between atoms: _383  and  _384
REMARK  161  A    between atoms: _387  and  _389
REMARK  162  A    between atoms: _389  and  _390
REMARK  163  A    between atoms: _389  and  _392
REMARK  164  A    between atoms: _392  and  _393
REMARK  165  A    between atoms: _396  and  _398
REMARK  166  A    between atoms: _398  and  _399
REMARK  167  A    between atoms: _398  and  _401
REMARK  168  A    between atoms: _401  and  _402
REMARK  169  A    between atoms: _402  and  _403
REMARK  170  A    between atoms: _403  and  _404
REMARK  171  A    between atoms: _404  and  _405
REMARK  172  A    between atoms: _409  and  _411
REMARK  173  A    between atoms: _411  and  _412
REMARK  174  A    between atoms: _411  and  _414
REMARK  175  A    between atoms: _414  and  _415
REMARK  176  A    between atoms: _425  and  _427
REMARK  177  A    between atoms: _427  and  _428
REMARK  178  A    between atoms: _427  and  _430
REMARK  179  A    between atoms: _430  and  _431
REMARK  180  A    between atoms: _431  and  _432
REMARK  181  A    between atoms: _435  and  _437
REMARK  182  A    between atoms: _437  and  _438
REMARK  183  A    between atoms: _437  and  _440
REMARK  184  A    between atoms: _440  and  _441
REMARK  185  A    between atoms: _443  and  _445
REMARK  186  A    between atoms: _445  and  _446
REMARK  187  A    between atoms: _445  and  _448
REMARK  188  A    between atoms: _448  and  _449
REMARK  189  A    between atoms: _455  and  _457
REMARK  190  A    between atoms: _457  and  _458
REMARK  191  A    between atoms: _457  and  _460
REMARK  192  A    between atoms: _460  and  _461
REMARK  193  A    between atoms: _464  and  _466
REMARK  194  A    between atoms: _466  and  _467
REMARK  195  A    between atoms: _466  and  _469
REMARK  196  A    between atoms: _472  and  _474
REMARK  197  A    between atoms: _474  and  _475
REMARK  198  A    between atoms: _477  and  _479
REMARK  199  A    between atoms: _479  and  _480
REMARK  200  A    between atoms: _479  and  _482
REMARK  201  A    between atoms: _482  and  _483
REMARK  202  A    between atoms: _486  and  _488
REMARK  203  A    between atoms: _488  and  _489
REMARK  204  A    between atoms: _488  and  _491
REMARK  205  A    between atoms: _491  and  _492
REMARK  206  A    between atoms: _492  and  _493
REMARK  207  A    between atoms: _493  and  _494
REMARK  208  A    between atoms: _494  and  _495
REMARK  209  A    between atoms: _499  and  _501
REMARK  210  A    between atoms: _501  and  _502
REMARK  211  A    between atoms: _501  and  _504
REMARK  212  A    between atoms: _507  and  _509
REMARK  213  A    between atoms: _509  and  _510
REMARK  214  A    between atoms: _509  and  _512
REMARK  215  A    between atoms: _512  and  _513
REMARK                            x       y       z     vdW  Elec       q    Type
REMARK                         _______ _______ _______ _____ _____    ______ ____
ROOT
ATOM      1  O   HOH     1      11.260   3.579  21.784  0.00  0.00    +0.000 OA
ENDROOT
TORSDOF 0
REMARK  Name = ../refined-set-2016/4cwo/4cwo_pocket.pdb
REMARK  215 active torsions:
REMARK  status: ('A' for Active; 'I' for Inactive)
REMARK    1  A    between atoms: _1  and  _3
REMARK    2  A    between atoms: _3  and  _4
REMARK    3  A    between atoms: _3  and  _6
REMARK    4  A    between atoms: _6  and  _7
REMARK    5  A    between atoms: _13  and  _15
REMARK    6  A    between atoms: _15  and  _16
REMARK    7  A    between atoms: _15  and  _18
REMARK    8  A    between atoms: _18  and  _19
REMARK    9  A    between atoms: _22  and  _24
REMARK   10  A    between atoms: _24  and  _25
REMARK   11  A    between atoms: _24  and  _27
REMARK   12  A    between atoms: _27  and  _28
REMARK   13  A    between atoms: _34  and  _36
REMARK   14  A    between atoms: _36  and  _37
REMARK   15  A    between atoms: _36  and  _39
REMARK   16  A    between atoms: _39  and  _40
REMARK   17  A    between atoms: _43  and  _45
REMARK   18  A    between atoms: _45  and  _46
REMARK   19  A    between atoms: _45  and  _48
REMARK   20  A    between atoms: _48  and  _49
REMARK   21  A    between atoms: _49  and  _50
REMARK   22  A    between atoms: _53  and  _55
REMARK   23  A    between atoms: _55  and  _56
REMARK   24  A    between atoms: _55  and  _58
REMARK   25  A    between atoms: _58  and  _59
REMARK   26  A    between atoms: _62  and  _64
REMARK   27  A    between atoms: _64  and  _65
REMARK   28  A    between atoms: _64  and  _67
REMARK   29  A    between atoms: _67  and  _68
REMARK   30  A    between atoms: _71  and  _73
REMARK   31  A    between atoms: _73  and  _74
REMARK   32  A    between atoms: _73  and  _76
REMARK   33  A    between atoms: _76  and  _77
REMARK   34  A    between atoms: _79  and  _81
REMARK   35  A    between atoms: _81  and  _82
REMARK   36  A    between atoms: _81  and  _84
REMARK   37  A    between atoms: _84  and  _85
REMARK   38  A    between atoms: _90  and  _92
REMARK   39  A    between atoms: _92  and  _93
REMARK   40  A    between atoms: _92  and  _95
REMARK   41  A    between atoms: _95  and  _96
REMARK   42  A    between atoms: _98  and  _100
REMARK   43  A    between atoms: _100  and  _101
REMARK   44  A    between atoms: _100  and  _103
REMARK   45  A    between atoms: _103  and  _104
REMARK   46  A    between atoms: _106  and  _108
REMARK   47  A    between atoms: _108  and  _109
REMARK   48  A    between atoms: _108  and  _111
REMARK   49  A    between atoms: _111  and  _112
REMARK   50  A    between atoms: _115  and  _117
REMARK   51  A    between atoms: _117  and  _118
REMARK   52  A    between atoms: _121  and  _123
REMARK   53  A    between atoms: _123  and  _124
REMARK   54  A    between atoms: _123  and  _126
REMARK   55  A    between atoms: _126  and  _127
REMARK   56  A    between atoms: _130  and  _132
REMARK   57  A    between atoms: _132  and  _133
REMARK   58  A    between atoms: _132  and  _135
REMARK   59  A    between atoms: _135  and  _136
REMARK   60  A    between atoms: _139  and  _141
REMARK   61  A    between atoms: _141  and  _142
REMARK   62  A    between atoms: _141  and  _144
REMARK   63  A    between atoms: _147  and  _149
REMARK   64  A    between atoms: _149  and  _150
REMARK   65  A    between atoms: _149  and  _152
REMARK   66  A    between atoms: _152  and  _153
REMARK   67  A    between atoms: _156  and  _158
REMARK   68  A    between atoms: _158  and  _159
REMARK   69  A    between atoms: _158  and  _161
REMARK   70  A    between atoms: _161  and  _162
REMARK   71  A    between atoms: _165  and  _167
REMARK   72  A    between atoms: _167  and  _168
REMARK   73  A    between atoms: _170  and  _172
REMARK   74  A    between atoms: _172  and  _173
REMARK   75  A    between atoms: _172  and  _175
REMARK   76  A    between atoms: _175  and  _176
REMARK   77  A    between atoms: _179  and  _181
REMARK   78  A    between atoms: _181  and  _182
REMARK   79  A    between atoms: _184  and  _186
REMARK   80  A    between atoms: _186  and  _187
REMARK   81  A    between atoms: _186  and  _189
REMARK   82  A    between atoms: _189  and  _190
REMARK   83  A    between atoms: _190  and  _191
REMARK   84  A    between atoms: _193  and  _195
REMARK   85  A    between atoms: _195  and  _196
REMARK   86  A    between atoms: _195  and  _198
REMARK   87  A    between atoms: _198  and  _199
REMARK   88  A    between atoms: _202  and  _204
REMARK   89  A    between atoms: _204  and  _205
REMARK   90  A    between atoms: _204  and  _207
REMARK   91  A    between atoms: _207  and  _208
REMARK   92  A    between atoms: _211  and  _213
REMARK   93  A    between atoms: _213  and  _214
REMARK   94  A    between atoms: _213  and  _216
REMARK   95  A    between atoms: _216  and  _217
REMARK   96  A    between atoms: _220  and  _222
REMARK   97  A    between atoms: _222  and  _223
REMARK   98  A    between atoms: _222  and  _225
REMARK   99  A    between atoms: _225  and  _226
REMARK  100  A    between atoms: _231  and  _233
REMARK  101  A    between atoms: _233  and  _234
REMARK  102  A    between atoms: _233  and  _236
REMARK  103  A    between atoms: _236  and  _237
REMARK  104  A    between atoms: _240  and  _242
REMARK  105  A    between atoms: _242  and  _243
REMARK  106  A    between atoms: _245  and  _247
REMARK  107  A    between atoms: _247  and  _248
REMARK  108  A    between atoms: _247  and  _250
REMARK  109  A    between atoms: _250  and  _251
REMARK  110  A    between atoms: _254  and  _256
REMARK  111  A    between atoms: _256  and  _257
REMARK  112  A    between atoms: _260  and  _262
REMARK  113  A    between atoms: _262  and  _263
REMARK  114  A    between atoms: _262  and  _265
REMARK  115  A    between atoms: _265  and  _266
REMARK  116  A    between atoms: _269  and  _271
REMARK  117  A    between atoms: _271  and  _272
REMARK  118  A    between atoms: _271  and  _274
REMARK  119  A    between atoms: _274  and  _275
REMARK  120  A    between atoms: _281  and  _283
REMARK  121  A    between atoms: _283  and  _284
REMARK  122  A    between atoms: _286  and  _288
REMARK  123  A    between atoms: _288  and  _289
REMARK  124  A    between atoms: _288  and  _291
REMARK  125  A    between atoms: _294  and  _296
REMARK  126  A    between atoms: _296  and  _297
REMARK  127  A    between atoms: _299  and  _301
REMARK  128  A    between atoms: _301  and  _302
REMARK  129  A    between atoms: _301  and  _304
REMARK  130  A    between atoms: _304  and  _305
REMARK  131  A    between atoms: _311  and  _313
REMARK  132  A    between atoms: _313  and  _314
REMARK  133  A    between atoms: _313  and  _316
REMARK  134  A    between atoms: _316  and  _317
REMARK  135  A    between atoms: _322  and  _323
REMARK  136  A    between atoms: _325  and  _327
REMARK  137  A    between atoms: _327  and  _328
REMARK  138  A    between atoms: _327  and  _330
REMARK  139  A    between atoms: _330  and  _331
REMARK  140  A    between atoms: _333  and  _335
REMARK  141  A    between atoms: _335  and  _336
REMARK  142  A    between atoms: _339  and  _341
REMARK  143  A    between atoms: _341  and  _342
REMARK  144  A    between atoms: _341  and  _344
REMARK  145  A    between atoms: _344  and  _345
REMARK  146  A    between atoms: _350  and  _351
REMARK  147  A    between atoms: _353  and  _355
REMARK  148  A    between atoms: _355  and  _356
REMARK  149  A    between atoms: _355  and  _358
REMARK  150  A    between atoms: _361  and  _363
REMARK  151  A    between atoms: _363  and  _364
REMARK  152  A    between atoms: _363  and  _366
REMARK  153  A    between atoms: _366  and  _367
REMARK  154  A    between atoms: _370  and  _372
REMARK  155  A    between atoms: _372  and  _373
REMARK  156  A    between atoms: _372  and  _375
REMARK  157  A    between atoms: _378  and  _380
REMARK  158  A    between atoms: _380  and  _381
REMARK  159  A    between atoms: _380  and  _383
REMARK  160  A    between atoms: _383  and  _384
REMARK  161  A    between atoms: _387  and  _389
REMARK  162  A    between atoms: _389  and  _390
REMARK  163  A    between atoms: _389  and  _392
REMARK  164  A    between atoms: _392  and  _393
REMARK  165  A    between atoms: _396  and  _398
REMARK  166  A    between atoms: _398  and  _399
REMARK  167  A    between atoms: _398  and  _401
REMARK  168  A    between atoms: _401  and  _402
REMARK  169  A    between atoms: _402  and  _403
REMARK  170  A    between atoms: _403  and  _404
REMARK  171  A    between atoms: _404  and  _405
REMARK  172  A    between atoms: _409  and  _411
REMARK  173  A    between atoms: _411  and  _412
REMARK  174  A    between atoms: _411  and  _414
REMARK  175  A    between atoms: _414  and  _415
REMARK  176  A    between atoms: _425  and  _427
REMARK  177  A    between atoms: _427  and  _428
REMARK  178  A    between atoms: _427  and  _430
REMARK  179  A    between atoms: _430  and  _431
REMARK  180  A    between atoms: _431  and  _432
REMARK  181  A    between atoms: _435  and  _437
REMARK  182  A    between atoms: _437  and  _438
REMARK  183  A    between atoms: _437  and  _440
REMARK  184  A    between atoms: _440  and  _441
REMARK  185  A    between atoms: _443  and  _445
REMARK  186  A    between atoms: _445  and  _446
REMARK  187  A    between atoms: _445  and  _448
REMARK  188  A    between atoms: _448  and  _449
REMARK  189  A    between atoms: _455  and  _457
REMARK  190  A    between atoms: _457  and  _458
REMARK  191  A    between atoms: _457  and  _460
REMARK  192  A    between atoms: _460  and  _461
REMARK  193  A    between atoms: _464  and  _466
REMARK  194  A    between atoms: _466  and  _467
REMARK  195  A    between atoms: _466  and  _469
REMARK  196  A    between atoms: _472  and  _474
REMARK  197  A    between atoms: _474  and  _475
REMARK  198  A    between atoms: _477  and  _479
REMARK  199  A    between atoms: _479  and  _480
REMARK  200  A    between atoms: _479  and  _482
REMARK  201  A    between atoms: _482  and  _483
REMARK  202  A    between atoms: _486  and  _488
REMARK  203  A    between atoms: _488  and  _489
REMARK  204  A    between atoms: _488  and  _491
REMARK  205  A    between atoms: _491  and  _492
REMARK  206  A    between atoms: _492  and  _493
REMARK  207  A    between atoms: _493  and  _494
REMARK  208  A    between atoms: _494  and  _495
REMARK  209  A    between atoms: _499  and  _501
REMARK  210  A    between atoms: _501  and  _502
REMARK  211  A    between atoms: _501  and  _504
REMARK  212  A    between atoms: _507  and  _509
REMARK  213  A    between atoms: _509  and  _510
REMARK  214  A    between atoms: _509  and  _512
REMARK  215  A    between atoms: _512  and  _513
REMARK                            x       y       z     vdW  Elec       q    Type
REMARK                         _______ _______ _______ _____ _____    ______ ____
ROOT
ATOM      1  O   HOH     1       4.379   6.956  18.321  0.00  0.00    +0.000 OA
ENDROOT
TORSDOF 0
