REMARK  Name = ../refined-set-2016/3ddg/3ddg_pocket.pdb
REMARK  165 active torsions:
REMARK  status: ('A' for Active; 'I' for Inactive)
REMARK    1  A    between atoms: _1  and  _3
REMARK    2  A    between atoms: _3  and  _4
REMARK    3  A    between atoms: _3  and  _6
REMARK    4  A    between atoms: _6  and  _7
REMARK    5  A    between atoms: _12  and  _14
REMARK    6  A    between atoms: _25  and  _28
REMARK    7  A    between atoms: _28  and  _29
REMARK    8  A    between atoms: _36  and  _37
REMARK    9  A    between atoms: _44  and  _45
REMARK   10  A    between atoms: _50  and  _52
REMARK   11  A    between atoms: _52  and  _53
REMARK   12  A    between atoms: _55  and  _57
REMARK   13  A    between atoms: _57  and  _58
REMARK   14  A    between atoms: _57  and  _60
REMARK   15  A    between atoms: _60  and  _61
REMARK   16  A    between atoms: _71  and  _73
REMARK   17  A    between atoms: _73  and  _74
REMARK   18  A    between atoms: _73  and  _76
REMARK   19  A    between atoms: _76  and  _77
REMARK   20  A    between atoms: _80  and  _82
REMARK   21  A    between atoms: _82  and  _83
REMARK   22  A    between atoms: _82  and  _85
REMARK   23  A    between atoms: _85  and  _86
REMARK   24  A    between atoms: _91  and  _92
REMARK   25  A    between atoms: _94  and  _96
REMARK   26  A    between atoms: _96  and  _97
REMARK   27  A    between atoms: _96  and  _99
REMARK   28  A    between atoms: _99  and  _100
REMARK   29  A    between atoms: _100  and  _101
REMARK   30  A    between atoms: _104  and  _106
REMARK   31  A    between atoms: _106  and  _107
REMARK   32  A    between atoms: _106  and  _109
REMARK   33  A    between atoms: _109  and  _110
REMARK   34  A    between atoms: _110  and  _111
REMARK   35  A    between atoms: _113  and  _115
REMARK   36  A    between atoms: _115  and  _116
REMARK   37  A    between atoms: _115  and  _118
REMARK   38  A    between atoms: _118  and  _119
REMARK   39  A    between atoms: _122  and  _124
REMARK   40  A    between atoms: _124  and  _125
REMARK   41  A    between atoms: _124  and  _127
REMARK   42  A    between atoms: _127  and  _128
REMARK   43  A    between atoms: _128  and  _130
REMARK   44  A    between atoms: _130  and  ZN_449
REMARK   45  A    between atoms: _132  and  _133
REMARK   46  A    between atoms: _138  and  _140
REMARK   47  A    between atoms: _140  and  _141
REMARK   48  A    between atoms: _140  and  _143
REMARK   49  A    between atoms: _143  and  _144
REMARK   50  A    between atoms: _150  and  _152
REMARK   51  A    between atoms: _152  and  _153
REMARK   52  A    between atoms: _152  and  _155
REMARK   53  A    between atoms: _155  and  _156
REMARK   54  A    between atoms: _156  and  _157
REMARK   55  A    between atoms: _157  and  _158
REMARK   56  A    between atoms: _167  and  _169
REMARK   57  A    between atoms: _169  and  _170
REMARK   58  A    between atoms: _169  and  _172
REMARK   59  A    between atoms: _172  and  _173
REMARK   60  A    between atoms: _178  and  _179
REMARK   61  A    between atoms: _181  and  _183
REMARK   62  A    between atoms: _183  and  _184
REMARK   63  A    between atoms: _183  and  _186
REMARK   64  A    between atoms: _186  and  _187
REMARK   65  A    between atoms: _189  and  _191
REMARK   66  A    between atoms: _191  and  _192
REMARK   67  A    between atoms: _191  and  _194
REMARK   68  A    between atoms: _194  and  _195
REMARK   69  A    between atoms: _200  and  _201
REMARK   70  A    between atoms: _203  and  _205
REMARK   71  A    between atoms: _205  and  _206
REMARK   72  A    between atoms: _205  and  _208
REMARK   73  A    between atoms: _208  and  _209
REMARK   74  A    between atoms: _212  and  _214
REMARK   75  A    between atoms: _214  and  _215
REMARK   76  A    between atoms: _214  and  _217
REMARK   77  A    between atoms: _217  and  _218
REMARK   78  A    between atoms: _221  and  _223
REMARK   79  A    between atoms: _223  and  _224
REMARK   80  A    between atoms: _223  and  _226
REMARK   81  A    between atoms: _226  and  _227
REMARK   82  A    between atoms: _227  and  _228
REMARK   83  A    between atoms: _228  and  _229
REMARK   84  A    between atoms: _238  and  _240
REMARK   85  A    between atoms: _240  and  _241
REMARK   86  A    between atoms: _243  and  _245
REMARK   87  A    between atoms: _245  and  _246
REMARK   88  A    between atoms: _245  and  _248
REMARK   89  A    between atoms: _248  and  _249
REMARK   90  A    between atoms: _252  and  _254
REMARK   91  A    between atoms: _254  and  _255
REMARK   92  A    between atoms: _254  and  _257
REMARK   93  A    between atoms: _257  and  _258
REMARK   94  A    between atoms: _261  and  _263
REMARK   95  A    between atoms: _263  and  _264
REMARK   96  A    between atoms: _263  and  _266
REMARK   97  A    between atoms: _266  and  _267
REMARK   98  A    between atoms: _273  and  _275
REMARK   99  A    between atoms: _275  and  _276
REMARK  100  A    between atoms: _275  and  _278
REMARK  101  A    between atoms: _278  and  _279
REMARK  102  A    between atoms: _279  and  _280
REMARK  103  A    between atoms: _280  and  _281
REMARK  104  A    between atoms: _290  and  _292
REMARK  105  A    between atoms: _292  and  _293
REMARK  106  A    between atoms: _292  and  _295
REMARK  107  A    between atoms: _295  and  _296
REMARK  108  A    between atoms: _301  and  _302
REMARK  109  A    between atoms: _304  and  _306
REMARK  110  A    between atoms: _306  and  _307
REMARK  111  A    between atoms: _306  and  _309
REMARK  112  A    between atoms: _309  and  _310
REMARK  113  A    between atoms: _313  and  _315
REMARK  114  A    between atoms: _315  and  _316
REMARK  115  A    between atoms: _315  and  _318
REMARK  116  A    between atoms: _318  and  _319
REMARK  117  A    between atoms: _329  and  _331
REMARK  118  A    between atoms: _331  and  _332
REMARK  119  A    between atoms: _331  and  _334
REMARK  120  A    between atoms: _334  and  _335
REMARK  121  A    between atoms: _340  and  _342
REMARK  122  A    between atoms: _342  and  _343
REMARK  123  A    between atoms: _342  and  _345
REMARK  124  A    between atoms: _345  and  _346
REMARK  125  A    between atoms: _350  and  ZN_449
REMARK  126  A    between atoms: _351  and  _353
REMARK  127  A    between atoms: _353  and  _354
REMARK  128  A    between atoms: _353  and  _356
REMARK  129  A    between atoms: _356  and  _357
REMARK  130  A    between atoms: _360  and  _362
REMARK  131  A    between atoms: _362  and  _363
REMARK  132  A    between atoms: _365  and  _367
REMARK  133  A    between atoms: _367  and  _368
REMARK  134  A    between atoms: _367  and  _370
REMARK  135  A    between atoms: _370  and  _371
REMARK  136  A    between atoms: _374  and  _376
REMARK  137  A    between atoms: _376  and  _377
REMARK  138  A    between atoms: _376  and  _379
REMARK  139  A    between atoms: _379  and  _380
REMARK  140  A    between atoms: _383  and  _385
REMARK  141  A    between atoms: _385  and  _386
REMARK  142  A    between atoms: _389  and  _391
REMARK  143  A    between atoms: _391  and  _392
REMARK  144  A    between atoms: _391  and  _394
REMARK  145  A    between atoms: _394  and  _395
REMARK  146  A    between atoms: _400  and  _401
REMARK  147  A    between atoms: _403  and  _405
REMARK  148  A    between atoms: _405  and  _406
REMARK  149  A    between atoms: _405  and  _408
REMARK  150  A    between atoms: _408  and  _409
REMARK  151  A    between atoms: _409  and  _410
REMARK  152  A    between atoms: _413  and  _415
REMARK  153  A    between atoms: _415  and  _416
REMARK  154  A    between atoms: _415  and  _418
REMARK  155  A    between atoms: _418  and  _419
REMARK  156  A    between atoms: _419  and  _420
REMARK  157  A    between atoms: _420  and  _421
REMARK  158  A    between atoms: _430  and  _432
REMARK  159  A    between atoms: _432  and  _433
REMARK  160  A    between atoms: _435  and  _437
REMARK  161  A    between atoms: _437  and  _438
REMARK  162  A    between atoms: _437  and  _440
REMARK  163  A    between atoms: _440  and  _441
REMARK  164  A    between atoms: _444  and  _446
REMARK  165  A    between atoms: _446  and  _447
REMARK                            x       y       z     vdW  Elec       q    Type
REMARK                         _______ _______ _______ _____ _____    ______ ____
ROOT
ATOM      1  CB  HIS A   1      36.778  55.841  16.247  0.00  0.00    +0.072 C 
ENDROOT
BRANCH   1   2
ATOM      2  CG  HIS A   1      35.327  56.152  16.026  0.00  0.00    +0.082 A 
ATOM      3  CD2 HIS A   1      34.206  55.513  16.440  0.00  0.00    +0.115 A 
ATOM      4  NE2 HIS A   1      33.131  56.238  15.980  0.00  0.00    -0.221 NA
ATOM      5  CE1 HIS A   1      33.577  57.250  15.251  0.00  0.00    +0.199 A 
ATOM      6  ND1 HIS A   1      34.895  57.238  15.288  0.00  0.00    -0.227 NA
ENDBRANCH   1   2
BRANCH   1   7
ATOM      7  CA  HIS A   1      37.365  56.416  17.573  0.00  0.00    +0.139 C 
BRANCH   7   8
ATOM      8  N   HIS A   1      36.803  55.716  18.743  0.00  0.00    -0.239 NA
ATOM      9  H   HIS A   1      35.991  56.141  19.235  0.00  0.00    +0.142 HD
ENDBRANCH   7   8
BRANCH   7  10
ATOM     10  C   HIS A   1      37.132  57.911  17.665  0.00  0.00    +0.224 C 
ATOM     11  O   HIS A   1      36.287  58.407  18.453  0.00  0.00    -0.287 OA
ENDBRANCH   7  10
ENDBRANCH   1   7
TORSDOF 4
REMARK  Name = ../refined-set-2016/3ddg/3ddg_pocket.pdb
REMARK  165 active torsions:
REMARK  status: ('A' for Active; 'I' for Inactive)
REMARK    1  A    between atoms: _1  and  _3
REMARK    2  A    between atoms: _3  and  _4
REMARK    3  A    between atoms: _3  and  _6
REMARK    4  A    between atoms: _6  and  _7
REMARK    5  A    between atoms: _12  and  _14
REMARK    6  A    between atoms: _25  and  _28
REMARK    7  A    between atoms: _28  and  _29
REMARK    8  A    between atoms: _36  and  _37
REMARK    9  A    between atoms: _44  and  _45
REMARK   10  A    between atoms: _50  and  _52
REMARK   11  A    between atoms: _52  and  _53
REMARK   12  A    between atoms: _55  and  _57
REMARK   13  A    between atoms: _57  and  _58
REMARK   14  A    between atoms: _57  and  _60
REMARK   15  A    between atoms: _60  and  _61
REMARK   16  A    between atoms: _71  and  _73
REMARK   17  A    between atoms: _73  and  _74
REMARK   18  A    between atoms: _73  and  _76
REMARK   19  A    between atoms: _76  and  _77
REMARK   20  A    between atoms: _80  and  _82
REMARK   21  A    between atoms: _82  and  _83
REMARK   22  A    between atoms: _82  and  _85
REMARK   23  A    between atoms: _85  and  _86
REMARK   24  A    between atoms: _91  and  _92
REMARK   25  A    between atoms: _94  and  _96
REMARK   26  A    between atoms: _96  and  _97
REMARK   27  A    between atoms: _96  and  _99
REMARK   28  A    between atoms: _99  and  _100
REMARK   29  A    between atoms: _100  and  _101
REMARK   30  A    between atoms: _104  and  _106
REMARK   31  A    between atoms: _106  and  _107
REMARK   32  A    between atoms: _106  and  _109
REMARK   33  A    between atoms: _109  and  _110
REMARK   34  A    between atoms: _110  and  _111
REMARK   35  A    between atoms: _113  and  _115
REMARK   36  A    between atoms: _115  and  _116
REMARK   37  A    between atoms: _115  and  _118
REMARK   38  A    between atoms: _118  and  _119
REMARK   39  A    between atoms: _122  and  _124
REMARK   40  A    between atoms: _124  and  _125
REMARK   41  A    between atoms: _124  and  _127
REMARK   42  A    between atoms: _127  and  _128
REMARK   43  A    between atoms: _128  and  _130
REMARK   44  A    between atoms: _130  and  ZN_449
REMARK   45  A    between atoms: _132  and  _133
REMARK   46  A    between atoms: _138  and  _140
REMARK   47  A    between atoms: _140  and  _141
REMARK   48  A    between atoms: _140  and  _143
REMARK   49  A    between atoms: _143  and  _144
REMARK   50  A    between atoms: _150  and  _152
REMARK   51  A    between atoms: _152  and  _153
REMARK   52  A    between atoms: _152  and  _155
REMARK   53  A    between atoms: _155  and  _156
REMARK   54  A    between atoms: _156  and  _157
REMARK   55  A    between atoms: _157  and  _158
REMARK   56  A    between atoms: _167  and  _169
REMARK   57  A    between atoms: _169  and  _170
REMARK   58  A    between atoms: _169  and  _172
REMARK   59  A    between atoms: _172  and  _173
REMARK   60  A    between atoms: _178  and  _179
REMARK   61  A    between atoms: _181  and  _183
REMARK   62  A    between atoms: _183  and  _184
REMARK   63  A    between atoms: _183  and  _186
REMARK   64  A    between atoms: _186  and  _187
REMARK   65  A    between atoms: _189  and  _191
REMARK   66  A    between atoms: _191  and  _192
REMARK   67  A    between atoms: _191  and  _194
REMARK   68  A    between atoms: _194  and  _195
REMARK   69  A    between atoms: _200  and  _201
REMARK   70  A    between atoms: _203  and  _205
REMARK   71  A    between atoms: _205  and  _206
REMARK   72  A    between atoms: _205  and  _208
REMARK   73  A    between atoms: _208  and  _209
REMARK   74  A    between atoms: _212  and  _214
REMARK   75  A    between atoms: _214  and  _215
REMARK   76  A    between atoms: _214  and  _217
REMARK   77  A    between atoms: _217  and  _218
REMARK   78  A    between atoms: _221  and  _223
REMARK   79  A    between atoms: _223  and  _224
REMARK   80  A    between atoms: _223  and  _226
REMARK   81  A    between atoms: _226  and  _227
REMARK   82  A    between atoms: _227  and  _228
REMARK   83  A    between atoms: _228  and  _229
REMARK   84  A    between atoms: _238  and  _240
REMARK   85  A    between atoms: _240  and  _241
REMARK   86  A    between atoms: _243  and  _245
REMARK   87  A    between atoms: _245  and  _246
REMARK   88  A    between atoms: _245  and  _248
REMARK   89  A    between atoms: _248  and  _249
REMARK   90  A    between atoms: _252  and  _254
REMARK   91  A    between atoms: _254  and  _255
REMARK   92  A    between atoms: _254  and  _257
REMARK   93  A    between atoms: _257  and  _258
REMARK   94  A    between atoms: _261  and  _263
REMARK   95  A    between atoms: _263  and  _264
REMARK   96  A    between atoms: _263  and  _266
REMARK   97  A    between atoms: _266  and  _267
REMARK   98  A    between atoms: _273  and  _275
REMARK   99  A    between atoms: _275  and  _276
REMARK  100  A    between atoms: _275  and  _278
REMARK  101  A    between atoms: _278  and  _279
REMARK  102  A    between atoms: _279  and  _280
REMARK  103  A    between atoms: _280  and  _281
REMARK  104  A    between atoms: _290  and  _292
REMARK  105  A    between atoms: _292  and  _293
REMARK  106  A    between atoms: _292  and  _295
REMARK  107  A    between atoms: _295  and  _296
REMARK  108  A    between atoms: _301  and  _302
REMARK  109  A    between atoms: _304  and  _306
REMARK  110  A    between atoms: _306  and  _307
REMARK  111  A    between atoms: _306  and  _309
REMARK  112  A    between atoms: _309  and  _310
REMARK  113  A    between atoms: _313  and  _315
REMARK  114  A    between atoms: _315  and  _316
REMARK  115  A    between atoms: _315  and  _318
REMARK  116  A    between atoms: _318  and  _319
REMARK  117  A    between atoms: _329  and  _331
REMARK  118  A    between atoms: _331  and  _332
REMARK  119  A    between atoms: _331  and  _334
REMARK  120  A    between atoms: _334  and  _335
REMARK  121  A    between atoms: _340  and  _342
REMARK  122  A    between atoms: _342  and  _343
REMARK  123  A    between atoms: _342  and  _345
REMARK  124  A    between atoms: _345  and  _346
REMARK  125  A    between atoms: _350  and  ZN_449
REMARK  126  A    between atoms: _351  and  _353
REMARK  127  A    between atoms: _353  and  _354
REMARK  128  A    between atoms: _353  and  _356
REMARK  129  A    between atoms: _356  and  _357
REMARK  130  A    between atoms: _360  and  _362
REMARK  131  A    between atoms: _362  and  _363
REMARK  132  A    between atoms: _365  and  _367
REMARK  133  A    between atoms: _367  and  _368
REMARK  134  A    between atoms: _367  and  _370
REMARK  135  A    between atoms: _370  and  _371
REMARK  136  A    between atoms: _374  and  _376
REMARK  137  A    between atoms: _376  and  _377
REMARK  138  A    between atoms: _376  and  _379
REMARK  139  A    between atoms: _379  and  _380
REMARK  140  A    between atoms: _383  and  _385
REMARK  141  A    between atoms: _385  and  _386
REMARK  142  A    between atoms: _389  and  _391
REMARK  143  A    between atoms: _391  and  _392
REMARK  144  A    between atoms: _391  and  _394
REMARK  145  A    between atoms: _394  and  _395
REMARK  146  A    between atoms: _400  and  _401
REMARK  147  A    between atoms: _403  and  _405
REMARK  148  A    between atoms: _405  and  _406
REMARK  149  A    between atoms: _405  and  _408
REMARK  150  A    between atoms: _408  and  _409
REMARK  151  A    between atoms: _409  and  _410
REMARK  152  A    between atoms: _413  and  _415
REMARK  153  A    between atoms: _415  and  _416
REMARK  154  A    between atoms: _415  and  _418
REMARK  155  A    between atoms: _418  and  _419
REMARK  156  A    between atoms: _419  and  _420
REMARK  157  A    between atoms: _420  and  _421
REMARK  158  A    between atoms: _430  and  _432
REMARK  159  A    between atoms: _432  and  _433
REMARK  160  A    between atoms: _435  and  _437
REMARK  161  A    between atoms: _437  and  _438
REMARK  162  A    between atoms: _437  and  _440
REMARK  163  A    between atoms: _440  and  _441
REMARK  164  A    between atoms: _444  and  _446
REMARK  165  A    between atoms: _446  and  _447
REMARK                            x       y       z     vdW  Elec       q    Type
REMARK                         _______ _______ _______ _____ _____    ______ ____
ROOT
ATOM      1  C   UNK A   1      36.935  61.547  13.430  0.00  0.00    +0.000 C 
ATOM      2  C   UNK A   1      37.599  62.921  13.330  0.00  0.00    +0.000 C 
ATOM      3  O   UNK A   1      37.056  63.924  13.805  0.00  0.00    +0.000 OA
ATOM      4  N   UNK A   2      38.815  62.960  12.768  0.00  0.00    +0.000 N 
ATOM      5  C   UNK A   2      39.618  64.189  12.710  0.00  0.00    +0.000 C 
ATOM      6  C   UNK A   2      39.758  64.675  11.270  0.00  0.00    +0.000 C 
ATOM      7  N   UNK A   3      38.971  65.670  10.901  0.00  0.00    +0.000 N 
ATOM      8  H   UNK A   3      38.332  66.101  11.599  0.00  0.00    +0.000 HD
ATOM      9  C   UNK A   3      38.982  66.176   9.530  0.00  0.00    +0.000 C 
ATOM     10  C   UNK A   3      37.718  67.025   9.311  0.00  0.00    +0.000 C 
ATOM     11  C   UNK A   3      36.457  66.203   9.389  0.00  0.00    +0.000 C 
ATOM     12  O   UNK A   3      35.567  66.525  10.184  0.00  0.00    +0.000 OA
ATOM     13  O   UNK A   3      36.402  65.233   8.666  0.00  0.00    +0.000 OA
ATOM     14 ZN   UNK A   1      34.627  64.123   8.004  0.00  0.00    +0.000 Zn
ATOM     15  N   UNK A   1      35.101  62.647   9.367  0.00  0.00    +0.000 N 
ATOM     16  C   UNK A   1      34.835  62.848  10.706  0.00  0.00    +0.000 A 
ATOM     17  C   UNK A   1      35.452  61.845  11.385  0.00  0.00    +0.000 A 
ATOM     18  N   UNK A   1      36.076  61.071  10.439  0.00  0.00    +0.000 NA
ATOM     19  C   UNK A   1      35.870  61.580   9.239  0.00  0.00    +0.000 A 
ATOM     20  O   UNK A   2      40.606  64.168  10.515  0.00  0.00    +0.000 OA
ATOM     21  H   UNK A   2      39.205  62.088  12.358  0.00  0.00    +0.000 HD
ATOM     22  C   UNK A   1      35.506  61.525  12.839  0.00  0.00    +0.000 C 
ENDROOT
BRANCH   9  23
ATOM     23  C   UNK A   3      40.245  67.030   9.304  0.00  0.00    +0.000 C 
ATOM     24  O   UNK A   3      40.417  68.003   9.976  0.00  0.00    +0.000 OA
ATOM     25  N   PRO A   4      41.088  66.664   8.339  0.00  0.00    +0.000 N 
ATOM     26  CA  PRO A   4      42.255  67.495   7.959  0.00  0.00    +0.000 C 
ATOM     27  CB  PRO A   4      43.087  66.539   7.060  0.00  0.00    +0.000 C 
ATOM     28  CG  PRO A   4      42.614  65.139   7.479  0.00  0.00    +0.000 C 
ATOM     29  CD  PRO A   4      41.091  65.367   7.639  0.00  0.00    +0.000 C 
BRANCH  26  30
ATOM     30  C   PRO A   4      41.851  68.806   7.214  0.00  0.00    +0.000 C 
ATOM     31  N   GLY A   5      41.080  69.614   7.953  0.00  0.00    +0.000 N 
ATOM     32  H   GLY A   5      40.873  69.339   8.934  0.00  0.00    +0.000 HD
ATOM     33  O   PRO A   4      42.180  69.064   6.047  0.00  0.00    +0.000 OA
BRANCH  31  34
ATOM     34  CA  GLY A   5      40.520  70.854   7.451  0.00  0.00    +0.000 C 
BRANCH  34  35
ATOM     35  C   GLY A   5      39.036  70.695   7.194  0.00  0.00    +0.000 C 
ATOM     36  N   TRP A   6      38.273  71.690   7.633  0.00  0.00    +0.000 N 
ATOM     37  H   TRP A   6      38.703  72.434   8.219  0.00  0.00    +0.000 HD
ATOM     38  O   GLY A   5      38.621  69.675   6.625  0.00  0.00    +0.000 OA
BRANCH  36  39
ATOM     39  CA  TRP A   6      36.839  71.773   7.317  0.00  0.00    +0.000 C 
BRANCH  39  40
ATOM     40  C   TRP A   6      36.284  73.135   7.706  0.00  0.00    +0.000 C 
ATOM     41  N   ILE A   7      35.967  73.274   9.003  0.00  0.00    +0.000 N 
ATOM     42  H   ILE A   7      35.999  72.423   9.601  0.00  0.00    +0.000 HD
ATOM     43  O   TRP A   6      36.172  74.032   6.858  0.00  0.00    +0.000 OA
BRANCH  41  44
ATOM     44  CA  ILE A   7      35.576  74.547   9.644  0.00  0.00    +0.000 C 
BRANCH  44  45
ATOM     45  C   ILE A   7      36.802  75.339  10.094  0.00  0.00    +0.000 C 
ATOM     46  O   ILE A   7      36.716  76.563  10.285  0.00  0.00    +0.000 OA
ENDBRANCH  44  45
BRANCH  44  47
ATOM     47  CB  ILE A   7      34.660  74.242  10.903  0.00  0.00    +0.000 C 
ATOM     48  CG2 ILE A   7      34.298  75.508  11.660  0.00  0.00    +0.000 C 
BRANCH  47  49
ATOM     49  CG1 ILE A   7      33.382  73.586  10.476  0.00  0.00    +0.000 C 
ATOM     50  CD1 ILE A   7      32.914  73.997   9.118  0.00  0.00    +0.000 C 
ENDBRANCH  47  49
ENDBRANCH  44  47
ENDBRANCH  41  44
ENDBRANCH  39  40
BRANCH  39  51
ATOM     51  CB  TRP A   6      36.051  70.655   8.023  0.00  0.00    +0.000 C 
BRANCH  51  52
ATOM     52  CG  TRP A   6      34.564  70.671   7.671  0.00  0.00    +0.000 A 
ATOM     53  CD2 TRP A   6      33.468  70.334   8.546  0.00  0.00    +0.000 A 
ATOM     54  CE3 TRP A   6      33.383  69.869   9.893  0.00  0.00    +0.000 A 
ATOM     55  CZ3 TRP A   6      32.095  69.614  10.446  0.00  0.00    +0.000 A 
ATOM     56  CH2 TRP A   6      30.917  69.775   9.645  0.00  0.00    +0.000 A 
ATOM     57  CZ2 TRP A   6      30.995  70.203   8.335  0.00  0.00    +0.000 A 
ATOM     58  CE2 TRP A   6      32.275  70.469   7.792  0.00  0.00    +0.000 A 
ATOM     59  NE1 TRP A   6      32.627  70.915   6.534  0.00  0.00    +0.000 N 
ATOM     60  HE1 TRP A   6      31.965  71.106   5.755  0.00  0.00    +0.000 HD
ATOM     61  CD1 TRP A   6      33.997  71.067   6.475  0.00  0.00    +0.000 A 
ENDBRANCH  51  52
ENDBRANCH  39  51
ENDBRANCH  36  39
ENDBRANCH  34  35
ENDBRANCH  31  34
ENDBRANCH  26  30
ENDBRANCH   9  23
BRANCH  14  62
ATOM     62  N   UNK A   1      35.663  63.556   6.182  0.00  0.00    +0.000 N 
ATOM     63  C   UNK A   1      36.663  62.748   5.889  0.00  0.00    +0.000 A 
ATOM     64  N   UNK A   1      36.761  62.656   4.577  0.00  0.00    +0.000 NA
ATOM     65  C   UNK A   1      35.766  63.417   3.991  0.00  0.00    +0.000 A 
ATOM     66  C   UNK A   1      35.062  63.974   5.015  0.00  0.00    +0.000 A 
BRANCH  65  67
ATOM     67  C   UNK A   1      35.612  63.528   2.511  0.00  0.00    +0.000 C 
BRANCH  67  68
ATOM     68  C   UNK A   1      36.439  64.676   1.900  0.00  0.00    +0.000 C 
BRANCH  68  69
ATOM     69  C   UNK A   1      35.843  66.053   2.278  0.00  0.00    +0.000 C 
ATOM     70  N   UNK A   3      36.699  67.023   2.683  0.00  0.00    +0.000 N 
ATOM     71  H   UNK A   3      37.647  66.764   3.023  0.00  0.00    +0.000 HD
ATOM     72  O   UNK A   1      34.608  66.234   2.144  0.00  0.00    +0.000 OA
BRANCH  70  73
ATOM     73  C   UNK A   3      36.301  68.437   2.646  0.00  0.00    +0.000 C 
BRANCH  73  74
ATOM     74  C   UNK A   3      37.231  69.296   1.807  0.00  0.00    +0.000 C 
ATOM     75  O   UNK A   3      37.112  70.532   1.817  0.00  0.00    +0.000 OA
ATOM     76  N   PRO A   4      38.171  68.650   1.124  0.00  0.00    +0.000 N 
ATOM     77  H   PRO A   4      38.258  67.618   1.222  0.00  0.00    +0.000 HD
BRANCH  76  78
ATOM     78  CA  PRO A   4      39.088  69.372   0.234  0.00  0.00    +0.000 C 
BRANCH  78  79
ATOM     79  C   PRO A   4      38.556  69.472  -1.181  0.00  0.00    +0.000 C 
ATOM     80  O   PRO A   4      37.810  70.409  -1.539  0.00  0.00    +0.000 OA
ENDBRANCH  78  79
ENDBRANCH  76  78
ENDBRANCH  73  74
BRANCH  73  81
ATOM     81  C   UNK A   3      36.241  69.072   4.024  0.00  0.00    +0.000 C 
BRANCH  81  82
ATOM     82  C   UNK A   3      35.219  68.418   4.905  0.00  0.00    +0.000 C 
ATOM     83  O   UNK A   3      35.528  67.811   5.940  0.00  0.00    +0.000 OA
ATOM     84  O   UNK A   3      33.987  68.515   4.567  0.00  0.00    +0.000 OA
ENDBRANCH  81  82
ENDBRANCH  73  81
ENDBRANCH  70  73
ENDBRANCH  68  69
BRANCH  68  85
ATOM     85  N   UNK A   1      37.839  64.531   2.259  0.00  0.00    +0.000 N 
ATOM     86  H   UNK A   1      38.087  63.959   3.091  0.00  0.00    +0.000 HD
ATOM     87  C   UNK A   1      38.831  65.114   1.548  0.00  0.00    +0.000 C 
ATOM     88  O   UNK A   1      38.643  65.868   0.574  0.00  0.00    +0.000 OA
BRANCH  87  89
ATOM     89  C   UNK A   1      40.281  64.829   2.022  0.00  0.00    +0.000 C 
BRANCH  89  90
ATOM     90  N   UNK A   1      41.202  64.871   0.874  0.00  0.00    +0.000 NA
ATOM     91  H   UNK A   1      42.073  65.434   0.956  0.00  0.00    +0.000 HD
ENDBRANCH  89  90
BRANCH  89  92
ATOM     92  C   UNK A   1      40.765  65.864   3.064  0.00  0.00    +0.000 C 
BRANCH  92  93
ATOM     93  C   UNK A   1      39.771  66.152   4.149  0.00  0.00    +0.000 A 
ATOM     94  N   UNK A   1      39.078  65.169   4.830  0.00  0.00    +0.000 NA
ATOM     95  C   UNK A   1      38.309  65.731   5.746  0.00  0.00    +0.000 A 
ATOM     96  N   UNK A   1      38.457  67.041   5.673  0.00  0.00    +0.000 NA
ATOM     97  C   UNK A   1      39.405  67.324   4.714  0.00  0.00    +0.000 A 
ENDBRANCH  92  93
ENDBRANCH  89  92
ENDBRANCH  87  89
ENDBRANCH  68  85
ENDBRANCH  67  68
ENDBRANCH  65  67
ENDBRANCH  14  62
BRANCH   1  98
ATOM     98  N   UNK A   1      36.889  61.099  14.850  0.00  0.00    +0.000 NA
ATOM     99  H   UNK A   1      36.016  61.224  15.401  0.00  0.00    +0.000 HD
ENDBRANCH   1  98
BRANCH   5 100
ATOM    100  C   UNK A   2      41.023  63.962  13.297  0.00  0.00    +0.000 C 
BRANCH 100 101
ATOM    101  C   UNK A   2      41.020  63.913  14.825  0.00  0.00    +0.000 C 
ATOM    102  O   UNK A   2      41.589  64.789  15.485  0.00  0.00    +0.000 OA
ATOM    103  N   UNK A   2      40.343  62.915  15.384  0.00  0.00    +0.000 N 
ATOM    104  H   UNK A   2      40.276  62.848  16.420  0.00  0.00    +0.000 HD
ATOM    105  H   UNK A   2      39.881  62.201  14.786  0.00  0.00    +0.000 HD
ENDBRANCH 100 101
ENDBRANCH   5 100
BRANCH  14 106
ATOM    106  O   UNK A   1      32.733  63.538   7.250  0.00  0.00    +0.000 OA
BRANCH 106 107
ATOM    107  C   UNK A   1      32.244  62.402   7.214  0.00  0.00    +0.000 C 
ATOM    108  O   UNK A   1      30.983  62.283   7.221  0.00  0.00    +0.000 OA
BRANCH 107 109
ATOM    109  C   UNK A   1      33.151  61.157   7.058  0.00  0.00    +0.000 C 
BRANCH 109 110
ATOM    110  C   UNK A   1      32.483  60.042   6.214  0.00  0.00    +0.000 C 
BRANCH 110 111
ATOM    111  C   UNK A   1      32.426  60.428   4.727  0.00  0.00    +0.000 C 
ATOM    112  O   UNK A   1      31.681  61.370   4.417  0.00  0.00    +0.000 OA
ATOM    113  N   UNK A   3      33.136  59.784   3.778  0.00  0.00    +0.000 N 
ATOM    114  C   UNK A   3      34.127  58.679   3.891  0.00  0.00    +0.000 C 
ATOM    115  C   UNK A   3      34.875  58.757   2.533  0.00  0.00    +0.000 C 
ATOM    116  C   UNK A   3      33.774  59.241   1.555  0.00  0.00    +0.000 C 
ATOM    117  C   UNK A   3      32.972  60.245   2.369  0.00  0.00    +0.000 C 
BRANCH 117 118
ATOM    118  C   UNK A   3      31.488  60.194   1.948  0.00  0.00    +0.000 C 
ATOM    119  O   UNK A   3      30.748  59.309   2.430  0.00  0.00    +0.000 OA
ATOM    120  N   PRO A   4      31.049  61.123   1.107  0.00  0.00    +0.000 N 
ATOM    121  H   PRO A   4      31.727  61.730   0.604  0.00  0.00    +0.000 HD
BRANCH 120 122
ATOM    122  CA  PRO A   4      29.587  61.297   0.882  0.00  0.00    +0.000 C 
BRANCH 122 123
ATOM    123  C   PRO A   4      29.122  60.373  -0.263  0.00  0.00    +0.000 C 
ATOM    124  O   PRO A   4      28.907  60.817  -1.399  0.00  0.00    +0.000 OA
ENDBRANCH 122 123
BRANCH 122 125
ATOM    125  CB  PRO A   4      29.271  62.776   0.604  0.00  0.00    +0.000 C 
BRANCH 125 126
ATOM    126  CG  PRO A   4      30.113  63.757   1.460  0.00  0.00    +0.000 A 
ATOM    127  CD2 PRO A   4      30.349  63.496   2.820  0.00  0.00    +0.000 A 
ATOM    128  CE2 PRO A   4      31.094  64.374   3.624  0.00  0.00    +0.000 A 
ATOM    129  CZ  PRO A   4      31.675  65.512   3.061  0.00  0.00    +0.000 A 
ATOM    130  CE1 PRO A   4      31.506  65.788   1.684  0.00  0.00    +0.000 A 
ATOM    131  CD1 PRO A   4      30.737  64.910   0.857  0.00  0.00    +0.000 A 
ENDBRANCH 125 126
ENDBRANCH 122 125
ENDBRANCH 120 122
ENDBRANCH 117 118
ENDBRANCH 110 111
BRANCH 110 132
ATOM    132  N   UNK A   1      32.989  58.724   6.574  0.00  0.00    +0.000 N 
ATOM    133  C   UNK A   1      32.246  57.871   7.287  0.00  0.00    +0.000 C 
ATOM    134  O   UNK A   1      31.082  58.040   7.530  0.00  0.00    +0.000 OA
ATOM    135  H   UNK A   1      33.943  58.442   6.272  0.00  0.00    +0.000 HD
BRANCH 133 136
ATOM    136  C   UNK A   1      32.921  56.615   7.801  0.00  0.00    +0.000 C 
BRANCH 136 137
ATOM    137  N   UNK A   1      34.182  56.287   7.187  0.00  0.00    +0.000 NA
ATOM    138  H   UNK A   1      35.063  56.607   7.637  0.00  0.00    +0.000 HD
ENDBRANCH 136 137
BRANCH 136 139
ATOM    139  C   UNK A   1      33.002  56.654   9.328  0.00  0.00    +0.000 C 
ATOM    140  C   UNK A   1      33.316  55.282   9.873  0.00  0.00    +0.000 C 
BRANCH 139 141
ATOM    141  C   UNK A   1      34.041  57.675   9.803  0.00  0.00    +0.000 C 
ATOM    142  C   UNK A   1      33.995  57.973  11.245  0.00  0.00    +0.000 C 
ENDBRANCH 139 141
ENDBRANCH 136 139
ENDBRANCH 133 136
ENDBRANCH 110 132
ENDBRANCH 109 110
ENDBRANCH 107 109
ENDBRANCH 106 107
ENDBRANCH  14 106
TORSDOF 45
REMARK  Name = ../refined-set-2016/3ddg/3ddg_pocket.pdb
REMARK  165 active torsions:
REMARK  status: ('A' for Active; 'I' for Inactive)
REMARK    1  A    between atoms: _1  and  _3
REMARK    2  A    between atoms: _3  and  _4
REMARK    3  A    between atoms: _3  and  _6
REMARK    4  A    between atoms: _6  and  _7
REMARK    5  A    between atoms: _12  and  _14
REMARK    6  A    between atoms: _25  and  _28
REMARK    7  A    between atoms: _28  and  _29
REMARK    8  A    between atoms: _36  and  _37
REMARK    9  A    between atoms: _44  and  _45
REMARK   10  A    between atoms: _50  and  _52
REMARK   11  A    between atoms: _52  and  _53
REMARK   12  A    between atoms: _55  and  _57
REMARK   13  A    between atoms: _57  and  _58
REMARK   14  A    between atoms: _57  and  _60
REMARK   15  A    between atoms: _60  and  _61
REMARK   16  A    between atoms: _71  and  _73
REMARK   17  A    between atoms: _73  and  _74
REMARK   18  A    between atoms: _73  and  _76
REMARK   19  A    between atoms: _76  and  _77
REMARK   20  A    between atoms: _80  and  _82
REMARK   21  A    between atoms: _82  and  _83
REMARK   22  A    between atoms: _82  and  _85
REMARK   23  A    between atoms: _85  and  _86
REMARK   24  A    between atoms: _91  and  _92
REMARK   25  A    between atoms: _94  and  _96
REMARK   26  A    between atoms: _96  and  _97
REMARK   27  A    between atoms: _96  and  _99
REMARK   28  A    between atoms: _99  and  _100
REMARK   29  A    between atoms: _100  and  _101
REMARK   30  A    between atoms: _104  and  _106
REMARK   31  A    between atoms: _106  and  _107
REMARK   32  A    between atoms: _106  and  _109
REMARK   33  A    between atoms: _109  and  _110
REMARK   34  A    between atoms: _110  and  _111
REMARK   35  A    between atoms: _113  and  _115
REMARK   36  A    between atoms: _115  and  _116
REMARK   37  A    between atoms: _115  and  _118
REMARK   38  A    between atoms: _118  and  _119
REMARK   39  A    between atoms: _122  and  _124
REMARK   40  A    between atoms: _124  and  _125
REMARK   41  A    between atoms: _124  and  _127
REMARK   42  A    between atoms: _127  and  _128
REMARK   43  A    between atoms: _128  and  _130
REMARK   44  A    between atoms: _130  and  ZN_449
REMARK   45  A    between atoms: _132  and  _133
REMARK   46  A    between atoms: _138  and  _140
REMARK   47  A    between atoms: _140  and  _141
REMARK   48  A    between atoms: _140  and  _143
REMARK   49  A    between atoms: _143  and  _144
REMARK   50  A    between atoms: _150  and  _152
REMARK   51  A    between atoms: _152  and  _153
REMARK   52  A    between atoms: _152  and  _155
REMARK   53  A    between atoms: _155  and  _156
REMARK   54  A    between atoms: _156  and  _157
REMARK   55  A    between atoms: _157  and  _158
REMARK   56  A    between atoms: _167  and  _169
REMARK   57  A    between atoms: _169  and  _170
REMARK   58  A    between atoms: _169  and  _172
REMARK   59  A    between atoms: _172  and  _173
REMARK   60  A    between atoms: _178  and  _179
REMARK   61  A    between atoms: _181  and  _183
REMARK   62  A    between atoms: _183  and  _184
REMARK   63  A    between atoms: _183  and  _186
REMARK   64  A    between atoms: _186  and  _187
REMARK   65  A    between atoms: _189  and  _191
REMARK   66  A    between atoms: _191  and  _192
REMARK   67  A    between atoms: _191  and  _194
REMARK   68  A    between atoms: _194  and  _195
REMARK   69  A    between atoms: _200  and  _201
REMARK   70  A    between atoms: _203  and  _205
REMARK   71  A    between atoms: _205  and  _206
REMARK   72  A    between atoms: _205  and  _208
REMARK   73  A    between atoms: _208  and  _209
REMARK   74  A    between atoms: _212  and  _214
REMARK   75  A    between atoms: _214  and  _215
REMARK   76  A    between atoms: _214  and  _217
REMARK   77  A    between atoms: _217  and  _218
REMARK   78  A    between atoms: _221  and  _223
REMARK   79  A    between atoms: _223  and  _224
REMARK   80  A    between atoms: _223  and  _226
REMARK   81  A    between atoms: _226  and  _227
REMARK   82  A    between atoms: _227  and  _228
REMARK   83  A    between atoms: _228  and  _229
REMARK   84  A    between atoms: _238  and  _240
REMARK   85  A    between atoms: _240  and  _241
REMARK   86  A    between atoms: _243  and  _245
REMARK   87  A    between atoms: _245  and  _246
REMARK   88  A    between atoms: _245  and  _248
REMARK   89  A    between atoms: _248  and  _249
REMARK   90  A    between atoms: _252  and  _254
REMARK   91  A    between atoms: _254  and  _255
REMARK   92  A    between atoms: _254  and  _257
REMARK   93  A    between atoms: _257  and  _258
REMARK   94  A    between atoms: _261  and  _263
REMARK   95  A    between atoms: _263  and  _264
REMARK   96  A    between atoms: _263  and  _266
REMARK   97  A    between atoms: _266  and  _267
REMARK   98  A    between atoms: _273  and  _275
REMARK   99  A    between atoms: _275  and  _276
REMARK  100  A    between atoms: _275  and  _278
REMARK  101  A    between atoms: _278  and  _279
REMARK  102  A    between atoms: _279  and  _280
REMARK  103  A    between atoms: _280  and  _281
REMARK  104  A    between atoms: _290  and  _292
REMARK  105  A    between atoms: _292  and  _293
REMARK  106  A    between atoms: _292  and  _295
REMARK  107  A    between atoms: _295  and  _296
REMARK  108  A    between atoms: _301  and  _302
REMARK  109  A    between atoms: _304  and  _306
REMARK  110  A    between atoms: _306  and  _307
REMARK  111  A    between atoms: _306  and  _309
REMARK  112  A    between atoms: _309  and  _310
REMARK  113  A    between atoms: _313  and  _315
REMARK  114  A    between atoms: _315  and  _316
REMARK  115  A    between atoms: _315  and  _318
REMARK  116  A    between atoms: _318  and  _319
REMARK  117  A    between atoms: _329  and  _331
REMARK  118  A    between atoms: _331  and  _332
REMARK  119  A    between atoms: _331  and  _334
REMARK  120  A    between atoms: _334  and  _335
REMARK  121  A    between atoms: _340  and  _342
REMARK  122  A    between atoms: _342  and  _343
REMARK  123  A    between atoms: _342  and  _345
REMARK  124  A    between atoms: _345  and  _346
REMARK  125  A    between atoms: _350  and  ZN_449
REMARK  126  A    between atoms: _351  and  _353
REMARK  127  A    between atoms: _353  and  _354
REMARK  128  A    between atoms: _353  and  _356
REMARK  129  A    between atoms: _356  and  _357
REMARK  130  A    between atoms: _360  and  _362
REMARK  131  A    between atoms: _362  and  _363
REMARK  132  A    between atoms: _365  and  _367
REMARK  133  A    between atoms: _367  and  _368
REMARK  134  A    between atoms: _367  and  _370
REMARK  135  A    between atoms: _370  and  _371
REMARK  136  A    between atoms: _374  and  _376
REMARK  137  A    between atoms: _376  and  _377
REMARK  138  A    between atoms: _376  and  _379
REMARK  139  A    between atoms: _379  and  _380
REMARK  140  A    between atoms: _383  and  _385
REMARK  141  A    between atoms: _385  and  _386
REMARK  142  A    between atoms: _389  and  _391
REMARK  143  A    between atoms: _391  and  _392
REMARK  144  A    between atoms: _391  and  _394
REMARK  145  A    between atoms: _394  and  _395
REMARK  146  A    between atoms: _400  and  _401
REMARK  147  A    between atoms: _403  and  _405
REMARK  148  A    between atoms: _405  and  _406
REMARK  149  A    between atoms: _405  and  _408
REMARK  150  A    between atoms: _408  and  _409
REMARK  151  A    between atoms: _409  and  _410
REMARK  152  A    between atoms: _413  and  _415
REMARK  153  A    between atoms: _415  and  _416
REMARK  154  A    between atoms: _415  and  _418
REMARK  155  A    between atoms: _418  and  _419
REMARK  156  A    between atoms: _419  and  _420
REMARK  157  A    between atoms: _420  and  _421
REMARK  158  A    between atoms: _430  and  _432
REMARK  159  A    between atoms: _432  and  _433
REMARK  160  A    between atoms: _435  and  _437
REMARK  161  A    between atoms: _437  and  _438
REMARK  162  A    between atoms: _437  and  _440
REMARK  163  A    between atoms: _440  and  _441
REMARK  164  A    between atoms: _444  and  _446
REMARK  165  A    between atoms: _446  and  _447
REMARK                            x       y       z     vdW  Elec       q    Type
REMARK                         _______ _______ _______ _____ _____    ______ ____
ROOT
ATOM      1  CG  TYR A   1      40.469  71.124  12.752  0.00  0.00    -0.020 A 
ATOM      2  CD2 TYR A   1      39.426  71.319  13.671  0.00  0.00    -0.001 A 
ATOM      3  CE2 TYR A   1      38.086  71.405  13.226  0.00  0.00    +0.036 A 
ATOM      4  CZ  TYR A   1      37.801  71.290  11.865  0.00  0.00    +0.134 A 
ATOM      5  CE1 TYR A   1      38.827  71.095  10.960  0.00  0.00    +0.036 A 
ATOM      6  CD1 TYR A   1      40.133  71.008  11.401  0.00  0.00    -0.001 A 
ENDROOT
BRANCH   4   7
ATOM      7  OH  TYR A   1      36.512  71.369  11.379  0.00  0.00    -0.506 OA
ATOM      8  HH  TYR A   1      35.885  71.509  12.132  0.00  0.00    +0.292 HD
ENDBRANCH   4   7
BRANCH   1   9
ATOM      9  CB  TYR A   1      41.904  70.947  13.190  0.00  0.00    +0.051 C 
BRANCH   9  10
ATOM     10  CA  TYR A   1      42.490  71.932  14.207  0.00  0.00    +0.137 C 
BRANCH  10  11
ATOM     11  N   TYR A   1      42.997  73.128  13.513  0.00  0.00    -0.239 NA
ATOM     12  H   TYR A   1      42.954  73.192  12.476  0.00  0.00    +0.142 HD
ENDBRANCH  10  11
BRANCH  10  13
ATOM     13  C   TYR A   1      43.617  71.175  14.959  0.00  0.00    +0.224 C 
ATOM     14  O   TYR A   1      43.406  70.641  16.035  0.00  0.00    -0.287 OA
ENDBRANCH  10  13
ENDBRANCH   9  10
ENDBRANCH   1   9
TORSDOF 5
REMARK  Name = ../refined-set-2016/3ddg/3ddg_pocket.pdb
REMARK  165 active torsions:
REMARK  status: ('A' for Active; 'I' for Inactive)
REMARK    1  A    between atoms: _1  and  _3
REMARK    2  A    between atoms: _3  and  _4
REMARK    3  A    between atoms: _3  and  _6
REMARK    4  A    between atoms: _6  and  _7
REMARK    5  A    between atoms: _12  and  _14
REMARK    6  A    between atoms: _25  and  _28
REMARK    7  A    between atoms: _28  and  _29
REMARK    8  A    between atoms: _36  and  _37
REMARK    9  A    between atoms: _44  and  _45
REMARK   10  A    between atoms: _50  and  _52
REMARK   11  A    between atoms: _52  and  _53
REMARK   12  A    between atoms: _55  and  _57
REMARK   13  A    between atoms: _57  and  _58
REMARK   14  A    between atoms: _57  and  _60
REMARK   15  A    between atoms: _60  and  _61
REMARK   16  A    between atoms: _71  and  _73
REMARK   17  A    between atoms: _73  and  _74
REMARK   18  A    between atoms: _73  and  _76
REMARK   19  A    between atoms: _76  and  _77
REMARK   20  A    between atoms: _80  and  _82
REMARK   21  A    between atoms: _82  and  _83
REMARK   22  A    between atoms: _82  and  _85
REMARK   23  A    between atoms: _85  and  _86
REMARK   24  A    between atoms: _91  and  _92
REMARK   25  A    between atoms: _94  and  _96
REMARK   26  A    between atoms: _96  and  _97
REMARK   27  A    between atoms: _96  and  _99
REMARK   28  A    between atoms: _99  and  _100
REMARK   29  A    between atoms: _100  and  _101
REMARK   30  A    between atoms: _104  and  _106
REMARK   31  A    between atoms: _106  and  _107
REMARK   32  A    between atoms: _106  and  _109
REMARK   33  A    between atoms: _109  and  _110
REMARK   34  A    between atoms: _110  and  _111
REMARK   35  A    between atoms: _113  and  _115
REMARK   36  A    between atoms: _115  and  _116
REMARK   37  A    between atoms: _115  and  _118
REMARK   38  A    between atoms: _118  and  _119
REMARK   39  A    between atoms: _122  and  _124
REMARK   40  A    between atoms: _124  and  _125
REMARK   41  A    between atoms: _124  and  _127
REMARK   42  A    between atoms: _127  and  _128
REMARK   43  A    between atoms: _128  and  _130
REMARK   44  A    between atoms: _130  and  ZN_449
REMARK   45  A    between atoms: _132  and  _133
REMARK   46  A    between atoms: _138  and  _140
REMARK   47  A    between atoms: _140  and  _141
REMARK   48  A    between atoms: _140  and  _143
REMARK   49  A    between atoms: _143  and  _144
REMARK   50  A    between atoms: _150  and  _152
REMARK   51  A    between atoms: _152  and  _153
REMARK   52  A    between atoms: _152  and  _155
REMARK   53  A    between atoms: _155  and  _156
REMARK   54  A    between atoms: _156  and  _157
REMARK   55  A    between atoms: _157  and  _158
REMARK   56  A    between atoms: _167  and  _169
REMARK   57  A    between atoms: _169  and  _170
REMARK   58  A    between atoms: _169  and  _172
REMARK   59  A    between atoms: _172  and  _173
REMARK   60  A    between atoms: _178  and  _179
REMARK   61  A    between atoms: _181  and  _183
REMARK   62  A    between atoms: _183  and  _184
REMARK   63  A    between atoms: _183  and  _186
REMARK   64  A    between atoms: _186  and  _187
REMARK   65  A    between atoms: _189  and  _191
REMARK   66  A    between atoms: _191  and  _192
REMARK   67  A    between atoms: _191  and  _194
REMARK   68  A    between atoms: _194  and  _195
REMARK   69  A    between atoms: _200  and  _201
REMARK   70  A    between atoms: _203  and  _205
REMARK   71  A    between atoms: _205  and  _206
REMARK   72  A    between atoms: _205  and  _208
REMARK   73  A    between atoms: _208  and  _209
REMARK   74  A    between atoms: _212  and  _214
REMARK   75  A    between atoms: _214  and  _215
REMARK   76  A    between atoms: _214  and  _217
REMARK   77  A    between atoms: _217  and  _218
REMARK   78  A    between atoms: _221  and  _223
REMARK   79  A    between atoms: _223  and  _224
REMARK   80  A    between atoms: _223  and  _226
REMARK   81  A    between atoms: _226  and  _227
REMARK   82  A    between atoms: _227  and  _228
REMARK   83  A    between atoms: _228  and  _229
REMARK   84  A    between atoms: _238  and  _240
REMARK   85  A    between atoms: _240  and  _241
REMARK   86  A    between atoms: _243  and  _245
REMARK   87  A    between atoms: _245  and  _246
REMARK   88  A    between atoms: _245  and  _248
REMARK   89  A    between atoms: _248  and  _249
REMARK   90  A    between atoms: _252  and  _254
REMARK   91  A    between atoms: _254  and  _255
REMARK   92  A    between atoms: _254  and  _257
REMARK   93  A    between atoms: _257  and  _258
REMARK   94  A    between atoms: _261  and  _263
REMARK   95  A    between atoms: _263  and  _264
REMARK   96  A    between atoms: _263  and  _266
REMARK   97  A    between atoms: _266  and  _267
REMARK   98  A    between atoms: _273  and  _275
REMARK   99  A    between atoms: _275  and  _276
REMARK  100  A    between atoms: _275  and  _278
REMARK  101  A    between atoms: _278  and  _279
REMARK  102  A    between atoms: _279  and  _280
REMARK  103  A    between atoms: _280  and  _281
REMARK  104  A    between atoms: _290  and  _292
REMARK  105  A    between atoms: _292  and  _293
REMARK  106  A    between atoms: _292  and  _295
REMARK  107  A    between atoms: _295  and  _296
REMARK  108  A    between atoms: _301  and  _302
REMARK  109  A    between atoms: _304  and  _306
REMARK  110  A    between atoms: _306  and  _307
REMARK  111  A    between atoms: _306  and  _309
REMARK  112  A    between atoms: _309  and  _310
REMARK  113  A    between atoms: _313  and  _315
REMARK  114  A    between atoms: _315  and  _316
REMARK  115  A    between atoms: _315  and  _318
REMARK  116  A    between atoms: _318  and  _319
REMARK  117  A    between atoms: _329  and  _331
REMARK  118  A    between atoms: _331  and  _332
REMARK  119  A    between atoms: _331  and  _334
REMARK  120  A    between atoms: _334  and  _335
REMARK  121  A    between atoms: _340  and  _342
REMARK  122  A    between atoms: _342  and  _343
REMARK  123  A    between atoms: _342  and  _345
REMARK  124  A    between atoms: _345  and  _346
REMARK  125  A    between atoms: _350  and  ZN_449
REMARK  126  A    between atoms: _351  and  _353
REMARK  127  A    between atoms: _353  and  _354
REMARK  128  A    between atoms: _353  and  _356
REMARK  129  A    between atoms: _356  and  _357
REMARK  130  A    between atoms: _360  and  _362
REMARK  131  A    between atoms: _362  and  _363
REMARK  132  A    between atoms: _365  and  _367
REMARK  133  A    between atoms: _367  and  _368
REMARK  134  A    between atoms: _367  and  _370
REMARK  135  A    between atoms: _370  and  _371
REMARK  136  A    between atoms: _374  and  _376
REMARK  137  A    between atoms: _376  and  _377
REMARK  138  A    between atoms: _376  and  _379
REMARK  139  A    between atoms: _379  and  _380
REMARK  140  A    between atoms: _383  and  _385
REMARK  141  A    between atoms: _385  and  _386
REMARK  142  A    between atoms: _389  and  _391
REMARK  143  A    between atoms: _391  and  _392
REMARK  144  A    between atoms: _391  and  _394
REMARK  145  A    between atoms: _394  and  _395
REMARK  146  A    between atoms: _400  and  _401
REMARK  147  A    between atoms: _403  and  _405
REMARK  148  A    between atoms: _405  and  _406
REMARK  149  A    between atoms: _405  and  _408
REMARK  150  A    between atoms: _408  and  _409
REMARK  151  A    between atoms: _409  and  _410
REMARK  152  A    between atoms: _413  and  _415
REMARK  153  A    between atoms: _415  and  _416
REMARK  154  A    between atoms: _415  and  _418
REMARK  155  A    between atoms: _418  and  _419
REMARK  156  A    between atoms: _419  and  _420
REMARK  157  A    between atoms: _420  and  _421
REMARK  158  A    between atoms: _430  and  _432
REMARK  159  A    between atoms: _432  and  _433
REMARK  160  A    between atoms: _435  and  _437
REMARK  161  A    between atoms: _437  and  _438
REMARK  162  A    between atoms: _437  and  _440
REMARK  163  A    between atoms: _440  and  _441
REMARK  164  A    between atoms: _444  and  _446
REMARK  165  A    between atoms: _446  and  _447
REMARK                            x       y       z     vdW  Elec       q    Type
REMARK                         _______ _______ _______ _____ _____    ______ ____
ROOT
ATOM      1  CA  GLU A   1      44.259  60.267   9.365  0.00  0.00    +0.134 C 
ENDROOT
BRANCH   1   2
ATOM      2  N   GLU A   1      43.709  59.168  10.178  0.00  0.00    -0.239 NA
ATOM      3  H   GLU A   1      43.402  59.369  11.151  0.00  0.00    +0.142 HD
ENDBRANCH   1   2
BRANCH   1   4
ATOM      4  C   GLU A   1      45.733  60.450   9.675  0.00  0.00    +0.224 C 
ATOM      5  O   GLU A   1      46.087  61.058  10.685  0.00  0.00    -0.287 OA
ENDBRANCH   1   4
BRANCH   1   6
ATOM      6  CB  GLU A   1      43.513  61.571   9.649  0.00  0.00    +0.037 C 
BRANCH   6   7
ATOM      7  CG  GLU A   1      42.020  61.517   9.318  0.00  0.00    +0.116 C 
BRANCH   7   8
ATOM      8  CD  GLU A   1      41.178  61.080  10.508  0.00  0.00    +0.365 C 
ATOM      9  OE2 GLU A   1      41.765  60.840  11.591  0.00  0.00    -0.246 OA
ATOM     10  OE1 GLU A   1      39.924  61.028  10.403  0.00  0.00    -0.246 OA
ENDBRANCH   7   8
ENDBRANCH   6   7
ENDBRANCH   1   6
TORSDOF 5
REMARK  Name = ../refined-set-2016/3ddg/3ddg_pocket.pdb
REMARK  165 active torsions:
REMARK  status: ('A' for Active; 'I' for Inactive)
REMARK    1  A    between atoms: _1  and  _3
REMARK    2  A    between atoms: _3  and  _4
REMARK    3  A    between atoms: _3  and  _6
REMARK    4  A    between atoms: _6  and  _7
REMARK    5  A    between atoms: _12  and  _14
REMARK    6  A    between atoms: _25  and  _28
REMARK    7  A    between atoms: _28  and  _29
REMARK    8  A    between atoms: _36  and  _37
REMARK    9  A    between atoms: _44  and  _45
REMARK   10  A    between atoms: _50  and  _52
REMARK   11  A    between atoms: _52  and  _53
REMARK   12  A    between atoms: _55  and  _57
REMARK   13  A    between atoms: _57  and  _58
REMARK   14  A    between atoms: _57  and  _60
REMARK   15  A    between atoms: _60  and  _61
REMARK   16  A    between atoms: _71  and  _73
REMARK   17  A    between atoms: _73  and  _74
REMARK   18  A    between atoms: _73  and  _76
REMARK   19  A    between atoms: _76  and  _77
REMARK   20  A    between atoms: _80  and  _82
REMARK   21  A    between atoms: _82  and  _83
REMARK   22  A    between atoms: _82  and  _85
REMARK   23  A    between atoms: _85  and  _86
REMARK   24  A    between atoms: _91  and  _92
REMARK   25  A    between atoms: _94  and  _96
REMARK   26  A    between atoms: _96  and  _97
REMARK   27  A    between atoms: _96  and  _99
REMARK   28  A    between atoms: _99  and  _100
REMARK   29  A    between atoms: _100  and  _101
REMARK   30  A    between atoms: _104  and  _106
REMARK   31  A    between atoms: _106  and  _107
REMARK   32  A    between atoms: _106  and  _109
REMARK   33  A    between atoms: _109  and  _110
REMARK   34  A    between atoms: _110  and  _111
REMARK   35  A    between atoms: _113  and  _115
REMARK   36  A    between atoms: _115  and  _116
REMARK   37  A    between atoms: _115  and  _118
REMARK   38  A    between atoms: _118  and  _119
REMARK   39  A    between atoms: _122  and  _124
REMARK   40  A    between atoms: _124  and  _125
REMARK   41  A    between atoms: _124  and  _127
REMARK   42  A    between atoms: _127  and  _128
REMARK   43  A    between atoms: _128  and  _130
REMARK   44  A    between atoms: _130  and  ZN_449
REMARK   45  A    between atoms: _132  and  _133
REMARK   46  A    between atoms: _138  and  _140
REMARK   47  A    between atoms: _140  and  _141
REMARK   48  A    between atoms: _140  and  _143
REMARK   49  A    between atoms: _143  and  _144
REMARK   50  A    between atoms: _150  and  _152
REMARK   51  A    between atoms: _152  and  _153
REMARK   52  A    between atoms: _152  and  _155
REMARK   53  A    between atoms: _155  and  _156
REMARK   54  A    between atoms: _156  and  _157
REMARK   55  A    between atoms: _157  and  _158
REMARK   56  A    between atoms: _167  and  _169
REMARK   57  A    between atoms: _169  and  _170
REMARK   58  A    between atoms: _169  and  _172
REMARK   59  A    between atoms: _172  and  _173
REMARK   60  A    between atoms: _178  and  _179
REMARK   61  A    between atoms: _181  and  _183
REMARK   62  A    between atoms: _183  and  _184
REMARK   63  A    between atoms: _183  and  _186
REMARK   64  A    between atoms: _186  and  _187
REMARK   65  A    between atoms: _189  and  _191
REMARK   66  A    between atoms: _191  and  _192
REMARK   67  A    between atoms: _191  and  _194
REMARK   68  A    between atoms: _194  and  _195
REMARK   69  A    between atoms: _200  and  _201
REMARK   70  A    between atoms: _203  and  _205
REMARK   71  A    between atoms: _205  and  _206
REMARK   72  A    between atoms: _205  and  _208
REMARK   73  A    between atoms: _208  and  _209
REMARK   74  A    between atoms: _212  and  _214
REMARK   75  A    between atoms: _214  and  _215
REMARK   76  A    between atoms: _214  and  _217
REMARK   77  A    between atoms: _217  and  _218
REMARK   78  A    between atoms: _221  and  _223
REMARK   79  A    between atoms: _223  and  _224
REMARK   80  A    between atoms: _223  and  _226
REMARK   81  A    between atoms: _226  and  _227
REMARK   82  A    between atoms: _227  and  _228
REMARK   83  A    between atoms: _228  and  _229
REMARK   84  A    between atoms: _238  and  _240
REMARK   85  A    between atoms: _240  and  _241
REMARK   86  A    between atoms: _243  and  _245
REMARK   87  A    between atoms: _245  and  _246
REMARK   88  A    between atoms: _245  and  _248
REMARK   89  A    between atoms: _248  and  _249
REMARK   90  A    between atoms: _252  and  _254
REMARK   91  A    between atoms: _254  and  _255
REMARK   92  A    between atoms: _254  and  _257
REMARK   93  A    between atoms: _257  and  _258
REMARK   94  A    between atoms: _261  and  _263
REMARK   95  A    between atoms: _263  and  _264
REMARK   96  A    between atoms: _263  and  _266
REMARK   97  A    between atoms: _266  and  _267
REMARK   98  A    between atoms: _273  and  _275
REMARK   99  A    between atoms: _275  and  _276
REMARK  100  A    between atoms: _275  and  _278
REMARK  101  A    between atoms: _278  and  _279
REMARK  102  A    between atoms: _279  and  _280
REMARK  103  A    between atoms: _280  and  _281
REMARK  104  A    between atoms: _290  and  _292
REMARK  105  A    between atoms: _292  and  _293
REMARK  106  A    between atoms: _292  and  _295
REMARK  107  A    between atoms: _295  and  _296
REMARK  108  A    between atoms: _301  and  _302
REMARK  109  A    between atoms: _304  and  _306
REMARK  110  A    between atoms: _306  and  _307
REMARK  111  A    between atoms: _306  and  _309
REMARK  112  A    between atoms: _309  and  _310
REMARK  113  A    between atoms: _313  and  _315
REMARK  114  A    between atoms: _315  and  _316
REMARK  115  A    between atoms: _315  and  _318
REMARK  116  A    between atoms: _318  and  _319
REMARK  117  A    between atoms: _329  and  _331
REMARK  118  A    between atoms: _331  and  _332
REMARK  119  A    between atoms: _331  and  _334
REMARK  120  A    between atoms: _334  and  _335
REMARK  121  A    between atoms: _340  and  _342
REMARK  122  A    between atoms: _342  and  _343
REMARK  123  A    between atoms: _342  and  _345
REMARK  124  A    between atoms: _345  and  _346
REMARK  125  A    between atoms: _350  and  ZN_449
REMARK  126  A    between atoms: _351  and  _353
REMARK  127  A    between atoms: _353  and  _354
REMARK  128  A    between atoms: _353  and  _356
REMARK  129  A    between atoms: _356  and  _357
REMARK  130  A    between atoms: _360  and  _362
REMARK  131  A    between atoms: _362  and  _363
REMARK  132  A    between atoms: _365  and  _367
REMARK  133  A    between atoms: _367  and  _368
REMARK  134  A    between atoms: _367  and  _370
REMARK  135  A    between atoms: _370  and  _371
REMARK  136  A    between atoms: _374  and  _376
REMARK  137  A    between atoms: _376  and  _377
REMARK  138  A    between atoms: _376  and  _379
REMARK  139  A    between atoms: _379  and  _380
REMARK  140  A    between atoms: _383  and  _385
REMARK  141  A    between atoms: _385  and  _386
REMARK  142  A    between atoms: _389  and  _391
REMARK  143  A    between atoms: _391  and  _392
REMARK  144  A    between atoms: _391  and  _394
REMARK  145  A    between atoms: _394  and  _395
REMARK  146  A    between atoms: _400  and  _401
REMARK  147  A    between atoms: _403  and  _405
REMARK  148  A    between atoms: _405  and  _406
REMARK  149  A    between atoms: _405  and  _408
REMARK  150  A    between atoms: _408  and  _409
REMARK  151  A    between atoms: _409  and  _410
REMARK  152  A    between atoms: _413  and  _415
REMARK  153  A    between atoms: _415  and  _416
REMARK  154  A    between atoms: _415  and  _418
REMARK  155  A    between atoms: _418  and  _419
REMARK  156  A    between atoms: _419  and  _420
REMARK  157  A    between atoms: _420  and  _421
REMARK  158  A    between atoms: _430  and  _432
REMARK  159  A    between atoms: _432  and  _433
REMARK  160  A    between atoms: _435  and  _437
REMARK  161  A    between atoms: _437  and  _438
REMARK  162  A    between atoms: _437  and  _440
REMARK  163  A    between atoms: _440  and  _441
REMARK  164  A    between atoms: _444  and  _446
REMARK  165  A    between atoms: _446  and  _447
REMARK                            x       y       z     vdW  Elec       q    Type
REMARK                         _______ _______ _______ _____ _____    ______ ____
ROOT
ATOM      1  CA  MET A   1      40.186  59.686   4.404  0.00  0.00    +0.134 C 
ENDROOT
BRANCH   1   2
ATOM      2  N   MET A   1      41.281  60.548   4.795  0.00  0.00    -0.239 NA
ATOM      3  H   MET A   1      41.068  61.468   5.230  0.00  0.00    +0.142 HD
ENDBRANCH   1   2
BRANCH   1   4
ATOM      4  C   MET A   1      39.509  60.365   3.207  0.00  0.00    +0.224 C 
ATOM      5  O   MET A   1      38.792  61.313   3.376  0.00  0.00    -0.287 OA
ENDBRANCH   1   4
BRANCH   1   6
ATOM      6  CB  MET A   1      39.195  59.552   5.569  0.00  0.00    +0.037 C 
BRANCH   6   7
ATOM      7  CG  MET A   1      37.947  58.791   5.236  0.00  0.00    +0.059 C 
BRANCH   7   8
ATOM      8  SD  MET A   1      36.745  58.919   6.603  0.00  0.00    -0.139 S 
ATOM      9  CE  MET A   1      37.696  58.130   7.955  0.00  0.00    +0.069 C 
ENDBRANCH   7   8
ENDBRANCH   6   7
ENDBRANCH   1   6
TORSDOF 5
REMARK  Name = ../refined-set-2016/3ddg/3ddg_pocket.pdb
REMARK  165 active torsions:
REMARK  status: ('A' for Active; 'I' for Inactive)
REMARK    1  A    between atoms: _1  and  _3
REMARK    2  A    between atoms: _3  and  _4
REMARK    3  A    between atoms: _3  and  _6
REMARK    4  A    between atoms: _6  and  _7
REMARK    5  A    between atoms: _12  and  _14
REMARK    6  A    between atoms: _25  and  _28
REMARK    7  A    between atoms: _28  and  _29
REMARK    8  A    between atoms: _36  and  _37
REMARK    9  A    between atoms: _44  and  _45
REMARK   10  A    between atoms: _50  and  _52
REMARK   11  A    between atoms: _52  and  _53
REMARK   12  A    between atoms: _55  and  _57
REMARK   13  A    between atoms: _57  and  _58
REMARK   14  A    between atoms: _57  and  _60
REMARK   15  A    between atoms: _60  and  _61
REMARK   16  A    between atoms: _71  and  _73
REMARK   17  A    between atoms: _73  and  _74
REMARK   18  A    between atoms: _73  and  _76
REMARK   19  A    between atoms: _76  and  _77
REMARK   20  A    between atoms: _80  and  _82
REMARK   21  A    between atoms: _82  and  _83
REMARK   22  A    between atoms: _82  and  _85
REMARK   23  A    between atoms: _85  and  _86
REMARK   24  A    between atoms: _91  and  _92
REMARK   25  A    between atoms: _94  and  _96
REMARK   26  A    between atoms: _96  and  _97
REMARK   27  A    between atoms: _96  and  _99
REMARK   28  A    between atoms: _99  and  _100
REMARK   29  A    between atoms: _100  and  _101
REMARK   30  A    between atoms: _104  and  _106
REMARK   31  A    between atoms: _106  and  _107
REMARK   32  A    between atoms: _106  and  _109
REMARK   33  A    between atoms: _109  and  _110
REMARK   34  A    between atoms: _110  and  _111
REMARK   35  A    between atoms: _113  and  _115
REMARK   36  A    between atoms: _115  and  _116
REMARK   37  A    between atoms: _115  and  _118
REMARK   38  A    between atoms: _118  and  _119
REMARK   39  A    between atoms: _122  and  _124
REMARK   40  A    between atoms: _124  and  _125
REMARK   41  A    between atoms: _124  and  _127
REMARK   42  A    between atoms: _127  and  _128
REMARK   43  A    between atoms: _128  and  _130
REMARK   44  A    between atoms: _130  and  ZN_449
REMARK   45  A    between atoms: _132  and  _133
REMARK   46  A    between atoms: _138  and  _140
REMARK   47  A    between atoms: _140  and  _141
REMARK   48  A    between atoms: _140  and  _143
REMARK   49  A    between atoms: _143  and  _144
REMARK   50  A    between atoms: _150  and  _152
REMARK   51  A    between atoms: _152  and  _153
REMARK   52  A    between atoms: _152  and  _155
REMARK   53  A    between atoms: _155  and  _156
REMARK   54  A    between atoms: _156  and  _157
REMARK   55  A    between atoms: _157  and  _158
REMARK   56  A    between atoms: _167  and  _169
REMARK   57  A    between atoms: _169  and  _170
REMARK   58  A    between atoms: _169  and  _172
REMARK   59  A    between atoms: _172  and  _173
REMARK   60  A    between atoms: _178  and  _179
REMARK   61  A    between atoms: _181  and  _183
REMARK   62  A    between atoms: _183  and  _184
REMARK   63  A    between atoms: _183  and  _186
REMARK   64  A    between atoms: _186  and  _187
REMARK   65  A    between atoms: _189  and  _191
REMARK   66  A    between atoms: _191  and  _192
REMARK   67  A    between atoms: _191  and  _194
REMARK   68  A    between atoms: _194  and  _195
REMARK   69  A    between atoms: _200  and  _201
REMARK   70  A    between atoms: _203  and  _205
REMARK   71  A    between atoms: _205  and  _206
REMARK   72  A    between atoms: _205  and  _208
REMARK   73  A    between atoms: _208  and  _209
REMARK   74  A    between atoms: _212  and  _214
REMARK   75  A    between atoms: _214  and  _215
REMARK   76  A    between atoms: _214  and  _217
REMARK   77  A    between atoms: _217  and  _218
REMARK   78  A    between atoms: _221  and  _223
REMARK   79  A    between atoms: _223  and  _224
REMARK   80  A    between atoms: _223  and  _226
REMARK   81  A    between atoms: _226  and  _227
REMARK   82  A    between atoms: _227  and  _228
REMARK   83  A    between atoms: _228  and  _229
REMARK   84  A    between atoms: _238  and  _240
REMARK   85  A    between atoms: _240  and  _241
REMARK   86  A    between atoms: _243  and  _245
REMARK   87  A    between atoms: _245  and  _246
REMARK   88  A    between atoms: _245  and  _248
REMARK   89  A    between atoms: _248  and  _249
REMARK   90  A    between atoms: _252  and  _254
REMARK   91  A    between atoms: _254  and  _255
REMARK   92  A    between atoms: _254  and  _257
REMARK   93  A    between atoms: _257  and  _258
REMARK   94  A    between atoms: _261  and  _263
REMARK   95  A    between atoms: _263  and  _264
REMARK   96  A    between atoms: _263  and  _266
REMARK   97  A    between atoms: _266  and  _267
REMARK   98  A    between atoms: _273  and  _275
REMARK   99  A    between atoms: _275  and  _276
REMARK  100  A    between atoms: _275  and  _278
REMARK  101  A    between atoms: _278  and  _279
REMARK  102  A    between atoms: _279  and  _280
REMARK  103  A    between atoms: _280  and  _281
REMARK  104  A    between atoms: _290  and  _292
REMARK  105  A    between atoms: _292  and  _293
REMARK  106  A    between atoms: _292  and  _295
REMARK  107  A    between atoms: _295  and  _296
REMARK  108  A    between atoms: _301  and  _302
REMARK  109  A    between atoms: _304  and  _306
REMARK  110  A    between atoms: _306  and  _307
REMARK  111  A    between atoms: _306  and  _309
REMARK  112  A    between atoms: _309  and  _310
REMARK  113  A    between atoms: _313  and  _315
REMARK  114  A    between atoms: _315  and  _316
REMARK  115  A    between atoms: _315  and  _318
REMARK  116  A    between atoms: _318  and  _319
REMARK  117  A    between atoms: _329  and  _331
REMARK  118  A    between atoms: _331  and  _332
REMARK  119  A    between atoms: _331  and  _334
REMARK  120  A    between atoms: _334  and  _335
REMARK  121  A    between atoms: _340  and  _342
REMARK  122  A    between atoms: _342  and  _343
REMARK  123  A    between atoms: _342  and  _345
REMARK  124  A    between atoms: _345  and  _346
REMARK  125  A    between atoms: _350  and  ZN_449
REMARK  126  A    between atoms: _351  and  _353
REMARK  127  A    between atoms: _353  and  _354
REMARK  128  A    between atoms: _353  and  _356
REMARK  129  A    between atoms: _356  and  _357
REMARK  130  A    between atoms: _360  and  _362
REMARK  131  A    between atoms: _362  and  _363
REMARK  132  A    between atoms: _365  and  _367
REMARK  133  A    between atoms: _367  and  _368
REMARK  134  A    between atoms: _367  and  _370
REMARK  135  A    between atoms: _370  and  _371
REMARK  136  A    between atoms: _374  and  _376
REMARK  137  A    between atoms: _376  and  _377
REMARK  138  A    between atoms: _376  and  _379
REMARK  139  A    between atoms: _379  and  _380
REMARK  140  A    between atoms: _383  and  _385
REMARK  141  A    between atoms: _385  and  _386
REMARK  142  A    between atoms: _389  and  _391
REMARK  143  A    between atoms: _391  and  _392
REMARK  144  A    between atoms: _391  and  _394
REMARK  145  A    between atoms: _394  and  _395
REMARK  146  A    between atoms: _400  and  _401
REMARK  147  A    between atoms: _403  and  _405
REMARK  148  A    between atoms: _405  and  _406
REMARK  149  A    between atoms: _405  and  _408
REMARK  150  A    between atoms: _408  and  _409
REMARK  151  A    between atoms: _409  and  _410
REMARK  152  A    between atoms: _413  and  _415
REMARK  153  A    between atoms: _415  and  _416
REMARK  154  A    between atoms: _415  and  _418
REMARK  155  A    between atoms: _418  and  _419
REMARK  156  A    between atoms: _419  and  _420
REMARK  157  A    between atoms: _420  and  _421
REMARK  158  A    between atoms: _430  and  _432
REMARK  159  A    between atoms: _432  and  _433
REMARK  160  A    between atoms: _435  and  _437
REMARK  161  A    between atoms: _437  and  _438
REMARK  162  A    between atoms: _437  and  _440
REMARK  163  A    between atoms: _440  and  _441
REMARK  164  A    between atoms: _444  and  _446
REMARK  165  A    between atoms: _446  and  _447
REMARK                            x       y       z     vdW  Elec       q    Type
REMARK                         _______ _______ _______ _____ _____    ______ ____
ROOT
ATOM      1  NE  ARG A   1      28.824  61.488   5.835  0.00  0.00    -0.265 N 
ATOM      2  CZ  ARG A   1      27.928  62.205   6.534  0.00  0.00    +0.342 C 
ATOM      3  NH2 ARG A   1      28.351  63.029   7.502  0.00  0.00    -0.292 N 
ATOM      4 HH21 ARG A   1      27.663  63.587   8.047  0.00  0.00    +0.255 HD
ATOM      5 HH22 ARG A   1      29.367  63.111   7.708  0.00  0.00    +0.255 HD
ATOM      6  NH1 ARG A   1      26.617  62.132   6.260  0.00  0.00    -0.292 N 
ATOM      7 HH11 ARG A   1      25.938  62.694   6.812  0.00  0.00    +0.255 HD
ATOM      8 HH12 ARG A   1      26.279  61.513   5.496  0.00  0.00    +0.255 HD
ATOM      9  HE  ARG A   1      29.819  61.540   6.133  0.00  0.00    +0.259 HD
ENDROOT
BRANCH   1  10
ATOM     10  CD  ARG A   1      28.504  60.633   4.678  0.00  0.00    +0.174 C 
BRANCH  10  11
ATOM     11  CG  ARG A   1      28.191  59.171   5.029  0.00  0.00    +0.045 C 
BRANCH  11  12
ATOM     12  CB  ARG A   1      27.989  58.379   3.747  0.00  0.00    +0.029 C 
BRANCH  12  13
ATOM     13  CA  ARG A   1      27.382  57.002   3.953  0.00  0.00    +0.133 C 
BRANCH  13  14
ATOM     14  N   ARG A   1      28.349  56.098   4.543  0.00  0.00    -0.239 NA
ATOM     15  H   ARG A   1      29.370  56.229   4.391  0.00  0.00    +0.142 HD
ENDBRANCH  13  14
BRANCH  13  16
ATOM     16  C   ARG A   1      26.803  56.460   2.640  0.00  0.00    +0.224 C 
ATOM     17  O   ARG A   1      27.377  56.676   1.579  0.00  0.00    -0.287 OA
ENDBRANCH  13  16
ENDBRANCH  12  13
ENDBRANCH  11  12
ENDBRANCH  10  11
ENDBRANCH   1  10
TORSDOF 6
REMARK  Name = ../refined-set-2016/3ddg/3ddg_pocket.pdb
REMARK  165 active torsions:
REMARK  status: ('A' for Active; 'I' for Inactive)
REMARK    1  A    between atoms: _1  and  _3
REMARK    2  A    between atoms: _3  and  _4
REMARK    3  A    between atoms: _3  and  _6
REMARK    4  A    between atoms: _6  and  _7
REMARK    5  A    between atoms: _12  and  _14
REMARK    6  A    between atoms: _25  and  _28
REMARK    7  A    between atoms: _28  and  _29
REMARK    8  A    between atoms: _36  and  _37
REMARK    9  A    between atoms: _44  and  _45
REMARK   10  A    between atoms: _50  and  _52
REMARK   11  A    between atoms: _52  and  _53
REMARK   12  A    between atoms: _55  and  _57
REMARK   13  A    between atoms: _57  and  _58
REMARK   14  A    between atoms: _57  and  _60
REMARK   15  A    between atoms: _60  and  _61
REMARK   16  A    between atoms: _71  and  _73
REMARK   17  A    between atoms: _73  and  _74
REMARK   18  A    between atoms: _73  and  _76
REMARK   19  A    between atoms: _76  and  _77
REMARK   20  A    between atoms: _80  and  _82
REMARK   21  A    between atoms: _82  and  _83
REMARK   22  A    between atoms: _82  and  _85
REMARK   23  A    between atoms: _85  and  _86
REMARK   24  A    between atoms: _91  and  _92
REMARK   25  A    between atoms: _94  and  _96
REMARK   26  A    between atoms: _96  and  _97
REMARK   27  A    between atoms: _96  and  _99
REMARK   28  A    between atoms: _99  and  _100
REMARK   29  A    between atoms: _100  and  _101
REMARK   30  A    between atoms: _104  and  _106
REMARK   31  A    between atoms: _106  and  _107
REMARK   32  A    between atoms: _106  and  _109
REMARK   33  A    between atoms: _109  and  _110
REMARK   34  A    between atoms: _110  and  _111
REMARK   35  A    between atoms: _113  and  _115
REMARK   36  A    between atoms: _115  and  _116
REMARK   37  A    between atoms: _115  and  _118
REMARK   38  A    between atoms: _118  and  _119
REMARK   39  A    between atoms: _122  and  _124
REMARK   40  A    between atoms: _124  and  _125
REMARK   41  A    between atoms: _124  and  _127
REMARK   42  A    between atoms: _127  and  _128
REMARK   43  A    between atoms: _128  and  _130
REMARK   44  A    between atoms: _130  and  ZN_449
REMARK   45  A    between atoms: _132  and  _133
REMARK   46  A    between atoms: _138  and  _140
REMARK   47  A    between atoms: _140  and  _141
REMARK   48  A    between atoms: _140  and  _143
REMARK   49  A    between atoms: _143  and  _144
REMARK   50  A    between atoms: _150  and  _152
REMARK   51  A    between atoms: _152  and  _153
REMARK   52  A    between atoms: _152  and  _155
REMARK   53  A    between atoms: _155  and  _156
REMARK   54  A    between atoms: _156  and  _157
REMARK   55  A    between atoms: _157  and  _158
REMARK   56  A    between atoms: _167  and  _169
REMARK   57  A    between atoms: _169  and  _170
REMARK   58  A    between atoms: _169  and  _172
REMARK   59  A    between atoms: _172  and  _173
REMARK   60  A    between atoms: _178  and  _179
REMARK   61  A    between atoms: _181  and  _183
REMARK   62  A    between atoms: _183  and  _184
REMARK   63  A    between atoms: _183  and  _186
REMARK   64  A    between atoms: _186  and  _187
REMARK   65  A    between atoms: _189  and  _191
REMARK   66  A    between atoms: _191  and  _192
REMARK   67  A    between atoms: _191  and  _194
REMARK   68  A    between atoms: _194  and  _195
REMARK   69  A    between atoms: _200  and  _201
REMARK   70  A    between atoms: _203  and  _205
REMARK   71  A    between atoms: _205  and  _206
REMARK   72  A    between atoms: _205  and  _208
REMARK   73  A    between atoms: _208  and  _209
REMARK   74  A    between atoms: _212  and  _214
REMARK   75  A    between atoms: _214  and  _215
REMARK   76  A    between atoms: _214  and  _217
REMARK   77  A    between atoms: _217  and  _218
REMARK   78  A    between atoms: _221  and  _223
REMARK   79  A    between atoms: _223  and  _224
REMARK   80  A    between atoms: _223  and  _226
REMARK   81  A    between atoms: _226  and  _227
REMARK   82  A    between atoms: _227  and  _228
REMARK   83  A    between atoms: _228  and  _229
REMARK   84  A    between atoms: _238  and  _240
REMARK   85  A    between atoms: _240  and  _241
REMARK   86  A    between atoms: _243  and  _245
REMARK   87  A    between atoms: _245  and  _246
REMARK   88  A    between atoms: _245  and  _248
REMARK   89  A    between atoms: _248  and  _249
REMARK   90  A    between atoms: _252  and  _254
REMARK   91  A    between atoms: _254  and  _255
REMARK   92  A    between atoms: _254  and  _257
REMARK   93  A    between atoms: _257  and  _258
REMARK   94  A    between atoms: _261  and  _263
REMARK   95  A    between atoms: _263  and  _264
REMARK   96  A    between atoms: _263  and  _266
REMARK   97  A    between atoms: _266  and  _267
REMARK   98  A    between atoms: _273  and  _275
REMARK   99  A    between atoms: _275  and  _276
REMARK  100  A    between atoms: _275  and  _278
REMARK  101  A    between atoms: _278  and  _279
REMARK  102  A    between atoms: _279  and  _280
REMARK  103  A    between atoms: _280  and  _281
REMARK  104  A    between atoms: _290  and  _292
REMARK  105  A    between atoms: _292  and  _293
REMARK  106  A    between atoms: _292  and  _295
REMARK  107  A    between atoms: _295  and  _296
REMARK  108  A    between atoms: _301  and  _302
REMARK  109  A    between atoms: _304  and  _306
REMARK  110  A    between atoms: _306  and  _307
REMARK  111  A    between atoms: _306  and  _309
REMARK  112  A    between atoms: _309  and  _310
REMARK  113  A    between atoms: _313  and  _315
REMARK  114  A    between atoms: _315  and  _316
REMARK  115  A    between atoms: _315  and  _318
REMARK  116  A    between atoms: _318  and  _319
REMARK  117  A    between atoms: _329  and  _331
REMARK  118  A    between atoms: _331  and  _332
REMARK  119  A    between atoms: _331  and  _334
REMARK  120  A    between atoms: _334  and  _335
REMARK  121  A    between atoms: _340  and  _342
REMARK  122  A    between atoms: _342  and  _343
REMARK  123  A    between atoms: _342  and  _345
REMARK  124  A    between atoms: _345  and  _346
REMARK  125  A    between atoms: _350  and  ZN_449
REMARK  126  A    between atoms: _351  and  _353
REMARK  127  A    between atoms: _353  and  _354
REMARK  128  A    between atoms: _353  and  _356
REMARK  129  A    between atoms: _356  and  _357
REMARK  130  A    between atoms: _360  and  _362
REMARK  131  A    between atoms: _362  and  _363
REMARK  132  A    between atoms: _365  and  _367
REMARK  133  A    between atoms: _367  and  _368
REMARK  134  A    between atoms: _367  and  _370
REMARK  135  A    between atoms: _370  and  _371
REMARK  136  A    between atoms: _374  and  _376
REMARK  137  A    between atoms: _376  and  _377
REMARK  138  A    between atoms: _376  and  _379
REMARK  139  A    between atoms: _379  and  _380
REMARK  140  A    between atoms: _383  and  _385
REMARK  141  A    between atoms: _385  and  _386
REMARK  142  A    between atoms: _389  and  _391
REMARK  143  A    between atoms: _391  and  _392
REMARK  144  A    between atoms: _391  and  _394
REMARK  145  A    between atoms: _394  and  _395
REMARK  146  A    between atoms: _400  and  _401
REMARK  147  A    between atoms: _403  and  _405
REMARK  148  A    between atoms: _405  and  _406
REMARK  149  A    between atoms: _405  and  _408
REMARK  150  A    between atoms: _408  and  _409
REMARK  151  A    between atoms: _409  and  _410
REMARK  152  A    between atoms: _413  and  _415
REMARK  153  A    between atoms: _415  and  _416
REMARK  154  A    between atoms: _415  and  _418
REMARK  155  A    between atoms: _418  and  _419
REMARK  156  A    between atoms: _419  and  _420
REMARK  157  A    between atoms: _420  and  _421
REMARK  158  A    between atoms: _430  and  _432
REMARK  159  A    between atoms: _432  and  _433
REMARK  160  A    between atoms: _435  and  _437
REMARK  161  A    between atoms: _437  and  _438
REMARK  162  A    between atoms: _437  and  _440
REMARK  163  A    between atoms: _440  and  _441
REMARK  164  A    between atoms: _444  and  _446
REMARK  165  A    between atoms: _446  and  _447
REMARK                            x       y       z     vdW  Elec       q    Type
REMARK                         _______ _______ _______ _____ _____    ______ ____
ROOT
ATOM      1  CA  TYR A   3      28.563  57.202  12.631  0.00  0.00    +0.153 C 
ENDROOT
BRANCH   1   4
ATOM      2  C   SER A   2      26.259  57.509  11.875  0.00  0.00    +0.243 C 
ATOM      3  O   SER A   2      25.901  56.423  12.359  0.00  0.00    -0.273 OA
ATOM      4  N   TYR A   3      27.539  57.909  11.855  0.00  0.00    -0.297 N 
ATOM      5  H   TYR A   3      27.809  58.733  11.281  0.00  0.00    +0.150 HD
BRANCH   2   6
ATOM      6  CA  SER A   2      25.239  58.447  11.245  0.00  0.00    +0.178 C 
BRANCH   6   8
ATOM      7  C   TYR A   1      23.314  58.041   9.824  0.00  0.00    +0.239 C 
ATOM      8  N   SER A   2      23.982  57.759  10.941  0.00  0.00    -0.295 N 
ATOM      9  H   SER A   2      23.609  57.047  11.601  0.00  0.00    +0.150 HD
ATOM     10  O   TYR A   1      23.721  58.832   8.975  0.00  0.00    -0.274 OA
BRANCH   7  11
ATOM     11  CA  TYR A   1      21.941  57.365   9.629  0.00  0.00    +0.149 C 
BRANCH  11  12
ATOM     12  N   TYR A   1      21.899  56.057  10.246  0.00  0.00    -0.238 NA
ATOM     13  H   TYR A   1      21.282  55.923  11.073  0.00  0.00    +0.142 HD
ENDBRANCH  11  12
BRANCH  11  14
ATOM     14  CB  TYR A   1      20.845  58.185  10.297  0.00  0.00    +0.053 C 
BRANCH  14  15
ATOM     15  CG  TYR A   1      20.905  59.673  10.107  0.00  0.00    -0.020 A 
ATOM     16  CD2 TYR A   1      21.326  60.488  11.175  0.00  0.00    -0.001 A 
ATOM     17  CE2 TYR A   1      21.376  61.863  11.054  0.00  0.00    +0.036 A 
ATOM     18  CZ  TYR A   1      20.984  62.448   9.885  0.00  0.00    +0.134 A 
ATOM     19  CE1 TYR A   1      20.552  61.693   8.792  0.00  0.00    +0.036 A 
ATOM     20  CD1 TYR A   1      20.508  60.283   8.913  0.00  0.00    -0.001 A 
BRANCH  18  21
ATOM     21  OH  TYR A   1      21.035  63.820   9.810  0.00  0.00    -0.506 OA
ATOM     22  HH  TYR A   1      20.726  64.112   8.916  0.00  0.00    +0.292 HD
ENDBRANCH  18  21
ENDBRANCH  14  15
ENDBRANCH  11  14
ENDBRANCH   7  11
ENDBRANCH   6   8
BRANCH   6  23
ATOM     23  CB  SER A   2      24.956  59.660  12.151  0.00  0.00    +0.166 C 
BRANCH  23  24
ATOM     24  OG  SER A   2      26.161  60.333  12.537  0.00  0.00    -0.380 OA
ATOM     25  H   SER A   2      26.632  60.654  11.728  0.00  0.00    +0.211 HD
ENDBRANCH  23  24
ENDBRANCH   6  23
ENDBRANCH   2   6
ENDBRANCH   1   4
BRANCH   1  26
ATOM     26  C   TYR A   3      28.677  57.734  14.078  0.00  0.00    +0.241 C 
ATOM     27  O   TYR A   3      29.559  57.285  14.826  0.00  0.00    -0.273 OA
ATOM     28  N   ASP A   4      27.849  58.706  14.467  0.00  0.00    -0.297 N 
ATOM     29  H   ASP A   4      27.142  59.089  13.807  0.00  0.00    +0.150 HD
BRANCH  28  30
ATOM     30  CA  ASP A   4      27.946  59.234  15.847  0.00  0.00    +0.160 C 
BRANCH  30  31
ATOM     31  C   ASP A   4      27.391  58.218  16.873  0.00  0.00    +0.241 C 
ATOM     32  N   ILE A   5      27.574  58.494  18.166  0.00  0.00    -0.298 N 
ATOM     33  H   ILE A   5      27.957  59.418  18.451  0.00  0.00    +0.150 HD
ATOM     34  O   ASP A   4      26.841  57.165  16.478  0.00  0.00    -0.273 OA
BRANCH  32  35
ATOM     35  CA  ILE A   5      27.237  57.499  19.182  0.00  0.00    +0.137 C 
BRANCH  35  36
ATOM     36  C   ILE A   5      25.710  57.223  19.189  0.00  0.00    +0.227 C 
ATOM     37  O   ILE A   5      25.356  56.053  19.196  0.00  0.00    -0.286 OA
ENDBRANCH  35  36
BRANCH  35  38
ATOM     38  CB  ILE A   5      27.826  57.831  20.559  0.00  0.00    +0.026 C 
ATOM     39  CG2 ILE A   5      27.286  56.869  21.645  0.00  0.00    +0.002 C 
BRANCH  38  40
ATOM     40  CG1 ILE A   5      29.355  57.701  20.473  0.00  0.00    +0.002 C 
ATOM     41  CD1 ILE A   5      30.115  58.346  21.646  0.00  0.00    +0.000 C 
ENDBRANCH  38  40
ENDBRANCH  35  38
ENDBRANCH  32  35
ENDBRANCH  30  31
BRANCH  30  42
ATOM     42  CB  ASP A   4      27.284  60.609  15.976  0.00  0.00    +0.143 C 
BRANCH  42  43
ATOM     43  CG  ASP A   4      25.786  60.617  15.729  0.00  0.00    +0.367 C 
ATOM     44  OD2 ASP A   4      25.113  59.570  15.652  0.00  0.00    -0.246 OA
ATOM     45  OD1 ASP A   4      25.173  61.702  15.593  0.00  0.00    -0.246 OA
ENDBRANCH  42  43
ENDBRANCH  30  42
ENDBRANCH  28  30
ENDBRANCH   1  26
BRANCH   1  46
ATOM     46  CB  TYR A   3      29.946  57.358  11.950  0.00  0.00    +0.055 C 
BRANCH  46  47
ATOM     47  CG  TYR A   3      30.347  58.801  11.712  0.00  0.00    -0.020 A 
ATOM     48  CD2 TYR A   3      30.874  59.588  12.771  0.00  0.00    -0.001 A 
ATOM     49  CE2 TYR A   3      31.240  60.936  12.539  0.00  0.00    +0.036 A 
ATOM     50  CZ  TYR A   3      31.114  61.477  11.257  0.00  0.00    +0.134 A 
ATOM     51  CE1 TYR A   3      30.575  60.716  10.184  0.00  0.00    +0.036 A 
ATOM     52  CD1 TYR A   3      30.214  59.375  10.427  0.00  0.00    -0.001 A 
BRANCH  50  53
ATOM     53  OH  TYR A   3      31.472  62.786  11.011  0.00  0.00    -0.506 OA
ATOM     54  HH  TYR A   3      31.829  63.191  11.841  0.00  0.00    +0.292 HD
ENDBRANCH  50  53
ENDBRANCH  46  47
ENDBRANCH   1  46
TORSDOF 22
REMARK  Name = ../refined-set-2016/3ddg/3ddg_pocket.pdb
REMARK  165 active torsions:
REMARK  status: ('A' for Active; 'I' for Inactive)
REMARK    1  A    between atoms: _1  and  _3
REMARK    2  A    between atoms: _3  and  _4
REMARK    3  A    between atoms: _3  and  _6
REMARK    4  A    between atoms: _6  and  _7
REMARK    5  A    between atoms: _12  and  _14
REMARK    6  A    between atoms: _25  and  _28
REMARK    7  A    between atoms: _28  and  _29
REMARK    8  A    between atoms: _36  and  _37
REMARK    9  A    between atoms: _44  and  _45
REMARK   10  A    between atoms: _50  and  _52
REMARK   11  A    between atoms: _52  and  _53
REMARK   12  A    between atoms: _55  and  _57
REMARK   13  A    between atoms: _57  and  _58
REMARK   14  A    between atoms: _57  and  _60
REMARK   15  A    between atoms: _60  and  _61
REMARK   16  A    between atoms: _71  and  _73
REMARK   17  A    between atoms: _73  and  _74
REMARK   18  A    between atoms: _73  and  _76
REMARK   19  A    between atoms: _76  and  _77
REMARK   20  A    between atoms: _80  and  _82
REMARK   21  A    between atoms: _82  and  _83
REMARK   22  A    between atoms: _82  and  _85
REMARK   23  A    between atoms: _85  and  _86
REMARK   24  A    between atoms: _91  and  _92
REMARK   25  A    between atoms: _94  and  _96
REMARK   26  A    between atoms: _96  and  _97
REMARK   27  A    between atoms: _96  and  _99
REMARK   28  A    between atoms: _99  and  _100
REMARK   29  A    between atoms: _100  and  _101
REMARK   30  A    between atoms: _104  and  _106
REMARK   31  A    between atoms: _106  and  _107
REMARK   32  A    between atoms: _106  and  _109
REMARK   33  A    between atoms: _109  and  _110
REMARK   34  A    between atoms: _110  and  _111
REMARK   35  A    between atoms: _113  and  _115
REMARK   36  A    between atoms: _115  and  _116
REMARK   37  A    between atoms: _115  and  _118
REMARK   38  A    between atoms: _118  and  _119
REMARK   39  A    between atoms: _122  and  _124
REMARK   40  A    between atoms: _124  and  _125
REMARK   41  A    between atoms: _124  and  _127
REMARK   42  A    between atoms: _127  and  _128
REMARK   43  A    between atoms: _128  and  _130
REMARK   44  A    between atoms: _130  and  ZN_449
REMARK   45  A    between atoms: _132  and  _133
REMARK   46  A    between atoms: _138  and  _140
REMARK   47  A    between atoms: _140  and  _141
REMARK   48  A    between atoms: _140  and  _143
REMARK   49  A    between atoms: _143  and  _144
REMARK   50  A    between atoms: _150  and  _152
REMARK   51  A    between atoms: _152  and  _153
REMARK   52  A    between atoms: _152  and  _155
REMARK   53  A    between atoms: _155  and  _156
REMARK   54  A    between atoms: _156  and  _157
REMARK   55  A    between atoms: _157  and  _158
REMARK   56  A    between atoms: _167  and  _169
REMARK   57  A    between atoms: _169  and  _170
REMARK   58  A    between atoms: _169  and  _172
REMARK   59  A    between atoms: _172  and  _173
REMARK   60  A    between atoms: _178  and  _179
REMARK   61  A    between atoms: _181  and  _183
REMARK   62  A    between atoms: _183  and  _184
REMARK   63  A    between atoms: _183  and  _186
REMARK   64  A    between atoms: _186  and  _187
REMARK   65  A    between atoms: _189  and  _191
REMARK   66  A    between atoms: _191  and  _192
REMARK   67  A    between atoms: _191  and  _194
REMARK   68  A    between atoms: _194  and  _195
REMARK   69  A    between atoms: _200  and  _201
REMARK   70  A    between atoms: _203  and  _205
REMARK   71  A    between atoms: _205  and  _206
REMARK   72  A    between atoms: _205  and  _208
REMARK   73  A    between atoms: _208  and  _209
REMARK   74  A    between atoms: _212  and  _214
REMARK   75  A    between atoms: _214  and  _215
REMARK   76  A    between atoms: _214  and  _217
REMARK   77  A    between atoms: _217  and  _218
REMARK   78  A    between atoms: _221  and  _223
REMARK   79  A    between atoms: _223  and  _224
REMARK   80  A    between atoms: _223  and  _226
REMARK   81  A    between atoms: _226  and  _227
REMARK   82  A    between atoms: _227  and  _228
REMARK   83  A    between atoms: _228  and  _229
REMARK   84  A    between atoms: _238  and  _240
REMARK   85  A    between atoms: _240  and  _241
REMARK   86  A    between atoms: _243  and  _245
REMARK   87  A    between atoms: _245  and  _246
REMARK   88  A    between atoms: _245  and  _248
REMARK   89  A    between atoms: _248  and  _249
REMARK   90  A    between atoms: _252  and  _254
REMARK   91  A    between atoms: _254  and  _255
REMARK   92  A    between atoms: _254  and  _257
REMARK   93  A    between atoms: _257  and  _258
REMARK   94  A    between atoms: _261  and  _263
REMARK   95  A    between atoms: _263  and  _264
REMARK   96  A    between atoms: _263  and  _266
REMARK   97  A    between atoms: _266  and  _267
REMARK   98  A    between atoms: _273  and  _275
REMARK   99  A    between atoms: _275  and  _276
REMARK  100  A    between atoms: _275  and  _278
REMARK  101  A    between atoms: _278  and  _279
REMARK  102  A    between atoms: _279  and  _280
REMARK  103  A    between atoms: _280  and  _281
REMARK  104  A    between atoms: _290  and  _292
REMARK  105  A    between atoms: _292  and  _293
REMARK  106  A    between atoms: _292  and  _295
REMARK  107  A    between atoms: _295  and  _296
REMARK  108  A    between atoms: _301  and  _302
REMARK  109  A    between atoms: _304  and  _306
REMARK  110  A    between atoms: _306  and  _307
REMARK  111  A    between atoms: _306  and  _309
REMARK  112  A    between atoms: _309  and  _310
REMARK  113  A    between atoms: _313  and  _315
REMARK  114  A    between atoms: _315  and  _316
REMARK  115  A    between atoms: _315  and  _318
REMARK  116  A    between atoms: _318  and  _319
REMARK  117  A    between atoms: _329  and  _331
REMARK  118  A    between atoms: _331  and  _332
REMARK  119  A    between atoms: _331  and  _334
REMARK  120  A    between atoms: _334  and  _335
REMARK  121  A    between atoms: _340  and  _342
REMARK  122  A    between atoms: _342  and  _343
REMARK  123  A    between atoms: _342  and  _345
REMARK  124  A    between atoms: _345  and  _346
REMARK  125  A    between atoms: _350  and  ZN_449
REMARK  126  A    between atoms: _351  and  _353
REMARK  127  A    between atoms: _353  and  _354
REMARK  128  A    between atoms: _353  and  _356
REMARK  129  A    between atoms: _356  and  _357
REMARK  130  A    between atoms: _360  and  _362
REMARK  131  A    between atoms: _362  and  _363
REMARK  132  A    between atoms: _365  and  _367
REMARK  133  A    between atoms: _367  and  _368
REMARK  134  A    between atoms: _367  and  _370
REMARK  135  A    between atoms: _370  and  _371
REMARK  136  A    between atoms: _374  and  _376
REMARK  137  A    between atoms: _376  and  _377
REMARK  138  A    between atoms: _376  and  _379
REMARK  139  A    between atoms: _379  and  _380
REMARK  140  A    between atoms: _383  and  _385
REMARK  141  A    between atoms: _385  and  _386
REMARK  142  A    between atoms: _389  and  _391
REMARK  143  A    between atoms: _391  and  _392
REMARK  144  A    between atoms: _391  and  _394
REMARK  145  A    between atoms: _394  and  _395
REMARK  146  A    between atoms: _400  and  _401
REMARK  147  A    between atoms: _403  and  _405
REMARK  148  A    between atoms: _405  and  _406
REMARK  149  A    between atoms: _405  and  _408
REMARK  150  A    between atoms: _408  and  _409
REMARK  151  A    between atoms: _409  and  _410
REMARK  152  A    between atoms: _413  and  _415
REMARK  153  A    between atoms: _415  and  _416
REMARK  154  A    between atoms: _415  and  _418
REMARK  155  A    between atoms: _418  and  _419
REMARK  156  A    between atoms: _419  and  _420
REMARK  157  A    between atoms: _420  and  _421
REMARK  158  A    between atoms: _430  and  _432
REMARK  159  A    between atoms: _432  and  _433
REMARK  160  A    between atoms: _435  and  _437
REMARK  161  A    between atoms: _437  and  _438
REMARK  162  A    between atoms: _437  and  _440
REMARK  163  A    between atoms: _440  and  _441
REMARK  164  A    between atoms: _444  and  _446
REMARK  165  A    between atoms: _446  and  _447
REMARK                            x       y       z     vdW  Elec       q    Type
REMARK                         _______ _______ _______ _____ _____    ______ ____
ROOT
ATOM      1  NE  ARG A   1      25.765  63.169  22.007  0.00  0.00    -0.265 N 
ATOM      2  HE  ARG A   1      26.536  62.472  21.969  0.00  0.00    +0.259 HD
ATOM      3  CZ  ARG A   1      25.268  63.629  20.865  0.00  0.00    +0.342 C 
ATOM      4  NH2 ARG A   1      24.291  64.521  20.880  0.00  0.00    -0.292 N 
ATOM      5 HH21 ARG A   1      23.912  64.862  21.786  0.00  0.00    +0.255 HD
ATOM      6 HH22 ARG A   1      23.902  64.881  19.985  0.00  0.00    +0.255 HD
ATOM      7  NH1 ARG A   1      25.731  63.185  19.714  0.00  0.00    -0.292 N 
ATOM      8 HH11 ARG A   1      26.488  62.472  19.698  0.00  0.00    +0.255 HD
ATOM      9 HH12 ARG A   1      25.339  63.547  18.821  0.00  0.00    +0.255 HD
ENDROOT
BRANCH   1  10
ATOM     10  CD  ARG A   1      25.278  63.597  23.307  0.00  0.00    +0.174 C 
BRANCH  10  11
ATOM     11  CG  ARG A   1      26.321  63.763  24.341  0.00  0.00    +0.045 C 
BRANCH  11  12
ATOM     12  CB  ARG A   1      25.690  64.048  25.678  0.00  0.00    +0.029 C 
BRANCH  12  13
ATOM     13  CA  ARG A   1      26.656  64.580  26.732  0.00  0.00    +0.133 C 
BRANCH  13  14
ATOM     14  N   ARG A   1      27.798  63.699  26.897  0.00  0.00    -0.239 NA
ATOM     15  H   ARG A   1      27.662  62.670  26.960  0.00  0.00    +0.142 HD
ENDBRANCH  13  14
BRANCH  13  16
ATOM     16  C   ARG A   1      25.868  64.880  28.009  0.00  0.00    +0.224 C 
ATOM     17  O   ARG A   1      24.660  64.895  27.969  0.00  0.00    -0.287 OA
ENDBRANCH  13  16
ENDBRANCH  12  13
ENDBRANCH  11  12
ENDBRANCH  10  11
ENDBRANCH   1  10
TORSDOF 6
REMARK  Name = ../refined-set-2016/3ddg/3ddg_pocket.pdb
REMARK  165 active torsions:
REMARK  status: ('A' for Active; 'I' for Inactive)
REMARK    1  A    between atoms: _1  and  _3
REMARK    2  A    between atoms: _3  and  _4
REMARK    3  A    between atoms: _3  and  _6
REMARK    4  A    between atoms: _6  and  _7
REMARK    5  A    between atoms: _12  and  _14
REMARK    6  A    between atoms: _25  and  _28
REMARK    7  A    between atoms: _28  and  _29
REMARK    8  A    between atoms: _36  and  _37
REMARK    9  A    between atoms: _44  and  _45
REMARK   10  A    between atoms: _50  and  _52
REMARK   11  A    between atoms: _52  and  _53
REMARK   12  A    between atoms: _55  and  _57
REMARK   13  A    between atoms: _57  and  _58
REMARK   14  A    between atoms: _57  and  _60
REMARK   15  A    between atoms: _60  and  _61
REMARK   16  A    between atoms: _71  and  _73
REMARK   17  A    between atoms: _73  and  _74
REMARK   18  A    between atoms: _73  and  _76
REMARK   19  A    between atoms: _76  and  _77
REMARK   20  A    between atoms: _80  and  _82
REMARK   21  A    between atoms: _82  and  _83
REMARK   22  A    between atoms: _82  and  _85
REMARK   23  A    between atoms: _85  and  _86
REMARK   24  A    between atoms: _91  and  _92
REMARK   25  A    between atoms: _94  and  _96
REMARK   26  A    between atoms: _96  and  _97
REMARK   27  A    between atoms: _96  and  _99
REMARK   28  A    between atoms: _99  and  _100
REMARK   29  A    between atoms: _100  and  _101
REMARK   30  A    between atoms: _104  and  _106
REMARK   31  A    between atoms: _106  and  _107
REMARK   32  A    between atoms: _106  and  _109
REMARK   33  A    between atoms: _109  and  _110
REMARK   34  A    between atoms: _110  and  _111
REMARK   35  A    between atoms: _113  and  _115
REMARK   36  A    between atoms: _115  and  _116
REMARK   37  A    between atoms: _115  and  _118
REMARK   38  A    between atoms: _118  and  _119
REMARK   39  A    between atoms: _122  and  _124
REMARK   40  A    between atoms: _124  and  _125
REMARK   41  A    between atoms: _124  and  _127
REMARK   42  A    between atoms: _127  and  _128
REMARK   43  A    between atoms: _128  and  _130
REMARK   44  A    between atoms: _130  and  ZN_449
REMARK   45  A    between atoms: _132  and  _133
REMARK   46  A    between atoms: _138  and  _140
REMARK   47  A    between atoms: _140  and  _141
REMARK   48  A    between atoms: _140  and  _143
REMARK   49  A    between atoms: _143  and  _144
REMARK   50  A    between atoms: _150  and  _152
REMARK   51  A    between atoms: _152  and  _153
REMARK   52  A    between atoms: _152  and  _155
REMARK   53  A    between atoms: _155  and  _156
REMARK   54  A    between atoms: _156  and  _157
REMARK   55  A    between atoms: _157  and  _158
REMARK   56  A    between atoms: _167  and  _169
REMARK   57  A    between atoms: _169  and  _170
REMARK   58  A    between atoms: _169  and  _172
REMARK   59  A    between atoms: _172  and  _173
REMARK   60  A    between atoms: _178  and  _179
REMARK   61  A    between atoms: _181  and  _183
REMARK   62  A    between atoms: _183  and  _184
REMARK   63  A    between atoms: _183  and  _186
REMARK   64  A    between atoms: _186  and  _187
REMARK   65  A    between atoms: _189  and  _191
REMARK   66  A    between atoms: _191  and  _192
REMARK   67  A    between atoms: _191  and  _194
REMARK   68  A    between atoms: _194  and  _195
REMARK   69  A    between atoms: _200  and  _201
REMARK   70  A    between atoms: _203  and  _205
REMARK   71  A    between atoms: _205  and  _206
REMARK   72  A    between atoms: _205  and  _208
REMARK   73  A    between atoms: _208  and  _209
REMARK   74  A    between atoms: _212  and  _214
REMARK   75  A    between atoms: _214  and  _215
REMARK   76  A    between atoms: _214  and  _217
REMARK   77  A    between atoms: _217  and  _218
REMARK   78  A    between atoms: _221  and  _223
REMARK   79  A    between atoms: _223  and  _224
REMARK   80  A    between atoms: _223  and  _226
REMARK   81  A    between atoms: _226  and  _227
REMARK   82  A    between atoms: _227  and  _228
REMARK   83  A    between atoms: _228  and  _229
REMARK   84  A    between atoms: _238  and  _240
REMARK   85  A    between atoms: _240  and  _241
REMARK   86  A    between atoms: _243  and  _245
REMARK   87  A    between atoms: _245  and  _246
REMARK   88  A    between atoms: _245  and  _248
REMARK   89  A    between atoms: _248  and  _249
REMARK   90  A    between atoms: _252  and  _254
REMARK   91  A    between atoms: _254  and  _255
REMARK   92  A    between atoms: _254  and  _257
REMARK   93  A    between atoms: _257  and  _258
REMARK   94  A    between atoms: _261  and  _263
REMARK   95  A    between atoms: _263  and  _264
REMARK   96  A    between atoms: _263  and  _266
REMARK   97  A    between atoms: _266  and  _267
REMARK   98  A    between atoms: _273  and  _275
REMARK   99  A    between atoms: _275  and  _276
REMARK  100  A    between atoms: _275  and  _278
REMARK  101  A    between atoms: _278  and  _279
REMARK  102  A    between atoms: _279  and  _280
REMARK  103  A    between atoms: _280  and  _281
REMARK  104  A    between atoms: _290  and  _292
REMARK  105  A    between atoms: _292  and  _293
REMARK  106  A    between atoms: _292  and  _295
REMARK  107  A    between atoms: _295  and  _296
REMARK  108  A    between atoms: _301  and  _302
REMARK  109  A    between atoms: _304  and  _306
REMARK  110  A    between atoms: _306  and  _307
REMARK  111  A    between atoms: _306  and  _309
REMARK  112  A    between atoms: _309  and  _310
REMARK  113  A    between atoms: _313  and  _315
REMARK  114  A    between atoms: _315  and  _316
REMARK  115  A    between atoms: _315  and  _318
REMARK  116  A    between atoms: _318  and  _319
REMARK  117  A    between atoms: _329  and  _331
REMARK  118  A    between atoms: _331  and  _332
REMARK  119  A    between atoms: _331  and  _334
REMARK  120  A    between atoms: _334  and  _335
REMARK  121  A    between atoms: _340  and  _342
REMARK  122  A    between atoms: _342  and  _343
REMARK  123  A    between atoms: _342  and  _345
REMARK  124  A    between atoms: _345  and  _346
REMARK  125  A    between atoms: _350  and  ZN_449
REMARK  126  A    between atoms: _351  and  _353
REMARK  127  A    between atoms: _353  and  _354
REMARK  128  A    between atoms: _353  and  _356
REMARK  129  A    between atoms: _356  and  _357
REMARK  130  A    between atoms: _360  and  _362
REMARK  131  A    between atoms: _362  and  _363
REMARK  132  A    between atoms: _365  and  _367
REMARK  133  A    between atoms: _367  and  _368
REMARK  134  A    between atoms: _367  and  _370
REMARK  135  A    between atoms: _370  and  _371
REMARK  136  A    between atoms: _374  and  _376
REMARK  137  A    between atoms: _376  and  _377
REMARK  138  A    between atoms: _376  and  _379
REMARK  139  A    between atoms: _379  and  _380
REMARK  140  A    between atoms: _383  and  _385
REMARK  141  A    between atoms: _385  and  _386
REMARK  142  A    between atoms: _389  and  _391
REMARK  143  A    between atoms: _391  and  _392
REMARK  144  A    between atoms: _391  and  _394
REMARK  145  A    between atoms: _394  and  _395
REMARK  146  A    between atoms: _400  and  _401
REMARK  147  A    between atoms: _403  and  _405
REMARK  148  A    between atoms: _405  and  _406
REMARK  149  A    between atoms: _405  and  _408
REMARK  150  A    between atoms: _408  and  _409
REMARK  151  A    between atoms: _409  and  _410
REMARK  152  A    between atoms: _413  and  _415
REMARK  153  A    between atoms: _415  and  _416
REMARK  154  A    between atoms: _415  and  _418
REMARK  155  A    between atoms: _418  and  _419
REMARK  156  A    between atoms: _419  and  _420
REMARK  157  A    between atoms: _420  and  _421
REMARK  158  A    between atoms: _430  and  _432
REMARK  159  A    between atoms: _432  and  _433
REMARK  160  A    between atoms: _435  and  _437
REMARK  161  A    between atoms: _437  and  _438
REMARK  162  A    between atoms: _437  and  _440
REMARK  163  A    between atoms: _440  and  _441
REMARK  164  A    between atoms: _444  and  _446
REMARK  165  A    between atoms: _446  and  _447
REMARK                            x       y       z     vdW  Elec       q    Type
REMARK                         _______ _______ _______ _____ _____    ______ ____
ROOT
ATOM      1  CA  PHE A   4      37.310  65.299  17.317  0.00  0.00    +0.153 C 
ENDROOT
BRANCH   1   2
ATOM      2  C   PHE A   4      36.967  64.947  18.766  0.00  0.00    +0.241 C 
ATOM      3  O   PHE A   4      37.148  65.752  19.699  0.00  0.00    -0.273 OA
ATOM      4  N   ARG A   5      36.486  63.712  18.932  0.00  0.00    -0.298 N 
ATOM      5  H   ARG A   5      36.285  63.140  18.087  0.00  0.00    +0.150 HD
BRANCH   4   6
ATOM      6  CA  ARG A   5      36.230  63.129  20.244  0.00  0.00    +0.137 C 
BRANCH   6   7
ATOM      7  C   ARG A   5      37.535  62.657  20.942  0.00  0.00    +0.227 C 
ATOM      8  O   ARG A   5      38.607  62.592  20.339  0.00  0.00    -0.286 OA
ENDBRANCH   6   7
BRANCH   6   9
ATOM      9  CB  ARG A   5      35.206  61.984  20.102  0.00  0.00    +0.031 C 
BRANCH   9  10
ATOM     10  CG  ARG A   5      33.817  62.494  19.859  0.00  0.00    +0.045 C 
BRANCH  10  11
ATOM     11  CD  ARG A   5      33.356  63.463  20.961  0.00  0.00    +0.174 C 
BRANCH  11  12
ATOM     12  NE  ARG A   5      31.914  63.728  20.875  0.00  0.00    -0.265 N 
ATOM     13  CZ  ARG A   5      30.979  63.055  21.574  0.00  0.00    +0.342 C 
ATOM     14  NH2 ARG A   5      31.329  62.061  22.405  0.00  0.00    -0.292 N 
ATOM     15 HH21 ARG A   5      30.599  61.549  22.939  0.00  0.00    +0.255 HD
ATOM     16 HH22 ARG A   5      32.331  61.803  22.515  0.00  0.00    +0.255 HD
ATOM     17  NH1 ARG A   5      29.696  63.392  21.438  0.00  0.00    -0.292 N 
ATOM     18 HH11 ARG A   5      28.965  62.880  21.972  0.00  0.00    +0.255 HD
ATOM     19 HH12 ARG A   5      29.427  64.166  20.798  0.00  0.00    +0.255 HD
ATOM     20  HE  ARG A   5      31.594  64.482  20.234  0.00  0.00    +0.259 HD
ENDBRANCH  11  12
ENDBRANCH  10  11
ENDBRANCH   9  10
ENDBRANCH   6   9
ENDBRANCH   4   6
ENDBRANCH   1   2
BRANCH   1  23
ATOM     21  C   ASP A   3      35.034  64.843  16.452  0.00  0.00    +0.241 C 
ATOM     22  O   ASP A   3      34.466  65.329  17.427  0.00  0.00    -0.273 OA
ATOM     23  N   PHE A   4      36.369  64.723  16.349  0.00  0.00    -0.297 N 
ATOM     24  H   PHE A   4      36.755  64.194  15.541  0.00  0.00    +0.150 HD
BRANCH  21  25
ATOM     25  CA  ASP A   3      34.194  64.310  15.299  0.00  0.00    +0.160 C 
BRANCH  25  28
ATOM     26  C   ASP A   2      33.508  62.258  16.379  0.00  0.00    +0.241 C 
ATOM     27  O   ASP A   2      34.685  61.970  16.630  0.00  0.00    -0.273 OA
ATOM     28  N   ASP A   3      33.163  63.398  15.822  0.00  0.00    -0.297 N 
ATOM     29  H   ASP A   3      32.158  63.657  15.751  0.00  0.00    +0.150 HD
BRANCH  26  30
ATOM     30  CA  ASP A   2      32.367  61.290  16.745  0.00  0.00    +0.160 C 
BRANCH  30  33
ATOM     31  C   GLY A   1      32.335  59.100  17.841  0.00  0.00    +0.240 C 
ATOM     32  O   GLY A   1      31.165  58.819  17.516  0.00  0.00    -0.274 OA
ATOM     33  N   ASP A   2      32.982  60.227  17.491  0.00  0.00    -0.297 N 
ATOM     34  H   ASP A   2      33.977  60.334  17.775  0.00  0.00    +0.150 HD
BRANCH  31  35
ATOM     35  CA  GLY A   1      33.121  58.120  18.667  0.00  0.00    +0.169 C 
BRANCH  35  36
ATOM     36  N   GLY A   1      32.346  56.897  18.926  0.00  0.00    -0.236 NA
ATOM     37  H   GLY A   1      31.371  56.797  18.578  0.00  0.00    +0.142 HD
ENDBRANCH  35  36
ENDBRANCH  31  35
ENDBRANCH  30  33
BRANCH  30  38
ATOM     38  CB  ASP A   2      31.315  62.001  17.619  0.00  0.00    +0.143 C 
BRANCH  38  39
ATOM     39  CG  ASP A   2      30.220  62.675  16.817  0.00  0.00    +0.367 C 
ATOM     40  OD2 ASP A   2      29.121  62.994  17.335  0.00  0.00    -0.246 OA
ATOM     41  OD1 ASP A   2      30.414  62.956  15.601  0.00  0.00    -0.246 OA
ENDBRANCH  38  39
ENDBRANCH  30  38
ENDBRANCH  26  30
ENDBRANCH  25  28
BRANCH  25  42
ATOM     42  CB  ASP A   3      33.497  65.508  14.643  0.00  0.00    +0.143 C 
BRANCH  42  43
ATOM     43  CG  ASP A   3      32.809  65.162  13.330  0.00  0.00    +0.367 C 
ATOM     44  OD2 ASP A   3      32.672  63.962  12.967  0.00  0.00    -0.246 OA
ATOM     45  OD1 ASP A   3      32.403  66.076  12.597  0.00  0.00    -0.246 OA
ENDBRANCH  42  43
ENDBRANCH  25  42
ENDBRANCH  21  25
ENDBRANCH   1  23
BRANCH   1  46
ATOM     46  CB  PHE A   4      37.420  66.827  17.106  0.00  0.00    +0.055 C 
BRANCH  46  47
ATOM     47  CG  PHE A   4      38.004  67.226  15.742  0.00  0.00    -0.020 A 
ATOM     48  CD2 PHE A   4      39.381  67.212  15.535  0.00  0.00    -0.004 A 
ATOM     49  CE2 PHE A   4      39.915  67.557  14.314  0.00  0.00    -0.000 A 
ATOM     50  CZ  PHE A   4      39.086  67.943  13.279  0.00  0.00    -0.000 A 
ATOM     51  CE1 PHE A   4      37.721  67.979  13.462  0.00  0.00    -0.000 A 
ATOM     52  CD1 PHE A   4      37.171  67.600  14.678  0.00  0.00    -0.004 A 
ENDBRANCH  46  47
ENDBRANCH   1  46
TORSDOF 20
REMARK  Name = ../refined-set-2016/3ddg/3ddg_pocket.pdb
REMARK  165 active torsions:
REMARK  status: ('A' for Active; 'I' for Inactive)
REMARK    1  A    between atoms: _1  and  _3
REMARK    2  A    between atoms: _3  and  _4
REMARK    3  A    between atoms: _3  and  _6
REMARK    4  A    between atoms: _6  and  _7
REMARK    5  A    between atoms: _12  and  _14
REMARK    6  A    between atoms: _25  and  _28
REMARK    7  A    between atoms: _28  and  _29
REMARK    8  A    between atoms: _36  and  _37
REMARK    9  A    between atoms: _44  and  _45
REMARK   10  A    between atoms: _50  and  _52
REMARK   11  A    between atoms: _52  and  _53
REMARK   12  A    between atoms: _55  and  _57
REMARK   13  A    between atoms: _57  and  _58
REMARK   14  A    between atoms: _57  and  _60
REMARK   15  A    between atoms: _60  and  _61
REMARK   16  A    between atoms: _71  and  _73
REMARK   17  A    between atoms: _73  and  _74
REMARK   18  A    between atoms: _73  and  _76
REMARK   19  A    between atoms: _76  and  _77
REMARK   20  A    between atoms: _80  and  _82
REMARK   21  A    between atoms: _82  and  _83
REMARK   22  A    between atoms: _82  and  _85
REMARK   23  A    between atoms: _85  and  _86
REMARK   24  A    between atoms: _91  and  _92
REMARK   25  A    between atoms: _94  and  _96
REMARK   26  A    between atoms: _96  and  _97
REMARK   27  A    between atoms: _96  and  _99
REMARK   28  A    between atoms: _99  and  _100
REMARK   29  A    between atoms: _100  and  _101
REMARK   30  A    between atoms: _104  and  _106
REMARK   31  A    between atoms: _106  and  _107
REMARK   32  A    between atoms: _106  and  _109
REMARK   33  A    between atoms: _109  and  _110
REMARK   34  A    between atoms: _110  and  _111
REMARK   35  A    between atoms: _113  and  _115
REMARK   36  A    between atoms: _115  and  _116
REMARK   37  A    between atoms: _115  and  _118
REMARK   38  A    between atoms: _118  and  _119
REMARK   39  A    between atoms: _122  and  _124
REMARK   40  A    between atoms: _124  and  _125
REMARK   41  A    between atoms: _124  and  _127
REMARK   42  A    between atoms: _127  and  _128
REMARK   43  A    between atoms: _128  and  _130
REMARK   44  A    between atoms: _130  and  ZN_449
REMARK   45  A    between atoms: _132  and  _133
REMARK   46  A    between atoms: _138  and  _140
REMARK   47  A    between atoms: _140  and  _141
REMARK   48  A    between atoms: _140  and  _143
REMARK   49  A    between atoms: _143  and  _144
REMARK   50  A    between atoms: _150  and  _152
REMARK   51  A    between atoms: _152  and  _153
REMARK   52  A    between atoms: _152  and  _155
REMARK   53  A    between atoms: _155  and  _156
REMARK   54  A    between atoms: _156  and  _157
REMARK   55  A    between atoms: _157  and  _158
REMARK   56  A    between atoms: _167  and  _169
REMARK   57  A    between atoms: _169  and  _170
REMARK   58  A    between atoms: _169  and  _172
REMARK   59  A    between atoms: _172  and  _173
REMARK   60  A    between atoms: _178  and  _179
REMARK   61  A    between atoms: _181  and  _183
REMARK   62  A    between atoms: _183  and  _184
REMARK   63  A    between atoms: _183  and  _186
REMARK   64  A    between atoms: _186  and  _187
REMARK   65  A    between atoms: _189  and  _191
REMARK   66  A    between atoms: _191  and  _192
REMARK   67  A    between atoms: _191  and  _194
REMARK   68  A    between atoms: _194  and  _195
REMARK   69  A    between atoms: _200  and  _201
REMARK   70  A    between atoms: _203  and  _205
REMARK   71  A    between atoms: _205  and  _206
REMARK   72  A    between atoms: _205  and  _208
REMARK   73  A    between atoms: _208  and  _209
REMARK   74  A    between atoms: _212  and  _214
REMARK   75  A    between atoms: _214  and  _215
REMARK   76  A    between atoms: _214  and  _217
REMARK   77  A    between atoms: _217  and  _218
REMARK   78  A    between atoms: _221  and  _223
REMARK   79  A    between atoms: _223  and  _224
REMARK   80  A    between atoms: _223  and  _226
REMARK   81  A    between atoms: _226  and  _227
REMARK   82  A    between atoms: _227  and  _228
REMARK   83  A    between atoms: _228  and  _229
REMARK   84  A    between atoms: _238  and  _240
REMARK   85  A    between atoms: _240  and  _241
REMARK   86  A    between atoms: _243  and  _245
REMARK   87  A    between atoms: _245  and  _246
REMARK   88  A    between atoms: _245  and  _248
REMARK   89  A    between atoms: _248  and  _249
REMARK   90  A    between atoms: _252  and  _254
REMARK   91  A    between atoms: _254  and  _255
REMARK   92  A    between atoms: _254  and  _257
REMARK   93  A    between atoms: _257  and  _258
REMARK   94  A    between atoms: _261  and  _263
REMARK   95  A    between atoms: _263  and  _264
REMARK   96  A    between atoms: _263  and  _266
REMARK   97  A    between atoms: _266  and  _267
REMARK   98  A    between atoms: _273  and  _275
REMARK   99  A    between atoms: _275  and  _276
REMARK  100  A    between atoms: _275  and  _278
REMARK  101  A    between atoms: _278  and  _279
REMARK  102  A    between atoms: _279  and  _280
REMARK  103  A    between atoms: _280  and  _281
REMARK  104  A    between atoms: _290  and  _292
REMARK  105  A    between atoms: _292  and  _293
REMARK  106  A    between atoms: _292  and  _295
REMARK  107  A    between atoms: _295  and  _296
REMARK  108  A    between atoms: _301  and  _302
REMARK  109  A    between atoms: _304  and  _306
REMARK  110  A    between atoms: _306  and  _307
REMARK  111  A    between atoms: _306  and  _309
REMARK  112  A    between atoms: _309  and  _310
REMARK  113  A    between atoms: _313  and  _315
REMARK  114  A    between atoms: _315  and  _316
REMARK  115  A    between atoms: _315  and  _318
REMARK  116  A    between atoms: _318  and  _319
REMARK  117  A    between atoms: _329  and  _331
REMARK  118  A    between atoms: _331  and  _332
REMARK  119  A    between atoms: _331  and  _334
REMARK  120  A    between atoms: _334  and  _335
REMARK  121  A    between atoms: _340  and  _342
REMARK  122  A    between atoms: _342  and  _343
REMARK  123  A    between atoms: _342  and  _345
REMARK  124  A    between atoms: _345  and  _346
REMARK  125  A    between atoms: _350  and  ZN_449
REMARK  126  A    between atoms: _351  and  _353
REMARK  127  A    between atoms: _353  and  _354
REMARK  128  A    between atoms: _353  and  _356
REMARK  129  A    between atoms: _356  and  _357
REMARK  130  A    between atoms: _360  and  _362
REMARK  131  A    between atoms: _362  and  _363
REMARK  132  A    between atoms: _365  and  _367
REMARK  133  A    between atoms: _367  and  _368
REMARK  134  A    between atoms: _367  and  _370
REMARK  135  A    between atoms: _370  and  _371
REMARK  136  A    between atoms: _374  and  _376
REMARK  137  A    between atoms: _376  and  _377
REMARK  138  A    between atoms: _376  and  _379
REMARK  139  A    between atoms: _379  and  _380
REMARK  140  A    between atoms: _383  and  _385
REMARK  141  A    between atoms: _385  and  _386
REMARK  142  A    between atoms: _389  and  _391
REMARK  143  A    between atoms: _391  and  _392
REMARK  144  A    between atoms: _391  and  _394
REMARK  145  A    between atoms: _394  and  _395
REMARK  146  A    between atoms: _400  and  _401
REMARK  147  A    between atoms: _403  and  _405
REMARK  148  A    between atoms: _405  and  _406
REMARK  149  A    between atoms: _405  and  _408
REMARK  150  A    between atoms: _408  and  _409
REMARK  151  A    between atoms: _409  and  _410
REMARK  152  A    between atoms: _413  and  _415
REMARK  153  A    between atoms: _415  and  _416
REMARK  154  A    between atoms: _415  and  _418
REMARK  155  A    between atoms: _418  and  _419
REMARK  156  A    between atoms: _419  and  _420
REMARK  157  A    between atoms: _420  and  _421
REMARK  158  A    between atoms: _430  and  _432
REMARK  159  A    between atoms: _432  and  _433
REMARK  160  A    between atoms: _435  and  _437
REMARK  161  A    between atoms: _437  and  _438
REMARK  162  A    between atoms: _437  and  _440
REMARK  163  A    between atoms: _440  and  _441
REMARK  164  A    between atoms: _444  and  _446
REMARK  165  A    between atoms: _446  and  _447
REMARK                            x       y       z     vdW  Elec       q    Type
REMARK                         _______ _______ _______ _____ _____    ______ ____
ROOT
ATOM      1  CG  TYR A   1      25.049  59.993   0.843  0.00  0.00    -0.020 A 
ATOM      2  CD2 TYR A   1      24.599  58.931   1.596  0.00  0.00    -0.001 A 
ATOM      3  CE2 TYR A   1      24.453  59.028   2.950  0.00  0.00    +0.036 A 
ATOM      4  CZ  TYR A   1      24.819  60.181   3.591  0.00  0.00    +0.134 A 
ATOM      5  CE1 TYR A   1      25.297  61.233   2.858  0.00  0.00    +0.036 A 
ATOM      6  CD1 TYR A   1      25.419  61.129   1.503  0.00  0.00    -0.001 A 
ENDROOT
BRANCH   4   7
ATOM      7  OH  TYR A   1      24.723  60.280   4.948  0.00  0.00    -0.506 OA
ATOM      8  HH  TYR A   1      24.361  59.435   5.315  0.00  0.00    +0.292 HD
ENDBRANCH   4   7
BRANCH   1   9
ATOM      9  CB  TYR A   1      25.246  59.875  -0.656  0.00  0.00    +0.051 C 
BRANCH   9  10
ATOM     10  CA  TYR A   1      24.048  59.460  -1.513  0.00  0.00    +0.137 C 
BRANCH  10  11
ATOM     11  N   TYR A   1      24.446  59.573  -2.923  0.00  0.00    -0.239 NA
ATOM     12  H   TYR A   1      25.393  59.951  -3.129  0.00  0.00    +0.142 HD
ENDBRANCH  10  11
BRANCH  10  13
ATOM     13  C   TYR A   1      22.907  60.410  -1.196  0.00  0.00    +0.224 C 
ATOM     14  O   TYR A   1      22.943  61.531  -1.650  0.00  0.00    -0.287 OA
ENDBRANCH  10  13
ENDBRANCH   9  10
ENDBRANCH   1   9
TORSDOF 5
REMARK  Name = ../refined-set-2016/3ddg/3ddg_pocket.pdb
REMARK  165 active torsions:
REMARK  status: ('A' for Active; 'I' for Inactive)
REMARK    1  A    between atoms: _1  and  _3
REMARK    2  A    between atoms: _3  and  _4
REMARK    3  A    between atoms: _3  and  _6
REMARK    4  A    between atoms: _6  and  _7
REMARK    5  A    between atoms: _12  and  _14
REMARK    6  A    between atoms: _25  and  _28
REMARK    7  A    between atoms: _28  and  _29
REMARK    8  A    between atoms: _36  and  _37
REMARK    9  A    between atoms: _44  and  _45
REMARK   10  A    between atoms: _50  and  _52
REMARK   11  A    between atoms: _52  and  _53
REMARK   12  A    between atoms: _55  and  _57
REMARK   13  A    between atoms: _57  and  _58
REMARK   14  A    between atoms: _57  and  _60
REMARK   15  A    between atoms: _60  and  _61
REMARK   16  A    between atoms: _71  and  _73
REMARK   17  A    between atoms: _73  and  _74
REMARK   18  A    between atoms: _73  and  _76
REMARK   19  A    between atoms: _76  and  _77
REMARK   20  A    between atoms: _80  and  _82
REMARK   21  A    between atoms: _82  and  _83
REMARK   22  A    between atoms: _82  and  _85
REMARK   23  A    between atoms: _85  and  _86
REMARK   24  A    between atoms: _91  and  _92
REMARK   25  A    between atoms: _94  and  _96
REMARK   26  A    between atoms: _96  and  _97
REMARK   27  A    between atoms: _96  and  _99
REMARK   28  A    between atoms: _99  and  _100
REMARK   29  A    between atoms: _100  and  _101
REMARK   30  A    between atoms: _104  and  _106
REMARK   31  A    between atoms: _106  and  _107
REMARK   32  A    between atoms: _106  and  _109
REMARK   33  A    between atoms: _109  and  _110
REMARK   34  A    between atoms: _110  and  _111
REMARK   35  A    between atoms: _113  and  _115
REMARK   36  A    between atoms: _115  and  _116
REMARK   37  A    between atoms: _115  and  _118
REMARK   38  A    between atoms: _118  and  _119
REMARK   39  A    between atoms: _122  and  _124
REMARK   40  A    between atoms: _124  and  _125
REMARK   41  A    between atoms: _124  and  _127
REMARK   42  A    between atoms: _127  and  _128
REMARK   43  A    between atoms: _128  and  _130
REMARK   44  A    between atoms: _130  and  ZN_449
REMARK   45  A    between atoms: _132  and  _133
REMARK   46  A    between atoms: _138  and  _140
REMARK   47  A    between atoms: _140  and  _141
REMARK   48  A    between atoms: _140  and  _143
REMARK   49  A    between atoms: _143  and  _144
REMARK   50  A    between atoms: _150  and  _152
REMARK   51  A    between atoms: _152  and  _153
REMARK   52  A    between atoms: _152  and  _155
REMARK   53  A    between atoms: _155  and  _156
REMARK   54  A    between atoms: _156  and  _157
REMARK   55  A    between atoms: _157  and  _158
REMARK   56  A    between atoms: _167  and  _169
REMARK   57  A    between atoms: _169  and  _170
REMARK   58  A    between atoms: _169  and  _172
REMARK   59  A    between atoms: _172  and  _173
REMARK   60  A    between atoms: _178  and  _179
REMARK   61  A    between atoms: _181  and  _183
REMARK   62  A    between atoms: _183  and  _184
REMARK   63  A    between atoms: _183  and  _186
REMARK   64  A    between atoms: _186  and  _187
REMARK   65  A    between atoms: _189  and  _191
REMARK   66  A    between atoms: _191  and  _192
REMARK   67  A    between atoms: _191  and  _194
REMARK   68  A    between atoms: _194  and  _195
REMARK   69  A    between atoms: _200  and  _201
REMARK   70  A    between atoms: _203  and  _205
REMARK   71  A    between atoms: _205  and  _206
REMARK   72  A    between atoms: _205  and  _208
REMARK   73  A    between atoms: _208  and  _209
REMARK   74  A    between atoms: _212  and  _214
REMARK   75  A    between atoms: _214  and  _215
REMARK   76  A    between atoms: _214  and  _217
REMARK   77  A    between atoms: _217  and  _218
REMARK   78  A    between atoms: _221  and  _223
REMARK   79  A    between atoms: _223  and  _224
REMARK   80  A    between atoms: _223  and  _226
REMARK   81  A    between atoms: _226  and  _227
REMARK   82  A    between atoms: _227  and  _228
REMARK   83  A    between atoms: _228  and  _229
REMARK   84  A    between atoms: _238  and  _240
REMARK   85  A    between atoms: _240  and  _241
REMARK   86  A    between atoms: _243  and  _245
REMARK   87  A    between atoms: _245  and  _246
REMARK   88  A    between atoms: _245  and  _248
REMARK   89  A    between atoms: _248  and  _249
REMARK   90  A    between atoms: _252  and  _254
REMARK   91  A    between atoms: _254  and  _255
REMARK   92  A    between atoms: _254  and  _257
REMARK   93  A    between atoms: _257  and  _258
REMARK   94  A    between atoms: _261  and  _263
REMARK   95  A    between atoms: _263  and  _264
REMARK   96  A    between atoms: _263  and  _266
REMARK   97  A    between atoms: _266  and  _267
REMARK   98  A    between atoms: _273  and  _275
REMARK   99  A    between atoms: _275  and  _276
REMARK  100  A    between atoms: _275  and  _278
REMARK  101  A    between atoms: _278  and  _279
REMARK  102  A    between atoms: _279  and  _280
REMARK  103  A    between atoms: _280  and  _281
REMARK  104  A    between atoms: _290  and  _292
REMARK  105  A    between atoms: _292  and  _293
REMARK  106  A    between atoms: _292  and  _295
REMARK  107  A    between atoms: _295  and  _296
REMARK  108  A    between atoms: _301  and  _302
REMARK  109  A    between atoms: _304  and  _306
REMARK  110  A    between atoms: _306  and  _307
REMARK  111  A    between atoms: _306  and  _309
REMARK  112  A    between atoms: _309  and  _310
REMARK  113  A    between atoms: _313  and  _315
REMARK  114  A    between atoms: _315  and  _316
REMARK  115  A    between atoms: _315  and  _318
REMARK  116  A    between atoms: _318  and  _319
REMARK  117  A    between atoms: _329  and  _331
REMARK  118  A    between atoms: _331  and  _332
REMARK  119  A    between atoms: _331  and  _334
REMARK  120  A    between atoms: _334  and  _335
REMARK  121  A    between atoms: _340  and  _342
REMARK  122  A    between atoms: _342  and  _343
REMARK  123  A    between atoms: _342  and  _345
REMARK  124  A    between atoms: _345  and  _346
REMARK  125  A    between atoms: _350  and  ZN_449
REMARK  126  A    between atoms: _351  and  _353
REMARK  127  A    between atoms: _353  and  _354
REMARK  128  A    between atoms: _353  and  _356
REMARK  129  A    between atoms: _356  and  _357
REMARK  130  A    between atoms: _360  and  _362
REMARK  131  A    between atoms: _362  and  _363
REMARK  132  A    between atoms: _365  and  _367
REMARK  133  A    between atoms: _367  and  _368
REMARK  134  A    between atoms: _367  and  _370
REMARK  135  A    between atoms: _370  and  _371
REMARK  136  A    between atoms: _374  and  _376
REMARK  137  A    between atoms: _376  and  _377
REMARK  138  A    between atoms: _376  and  _379
REMARK  139  A    between atoms: _379  and  _380
REMARK  140  A    between atoms: _383  and  _385
REMARK  141  A    between atoms: _385  and  _386
REMARK  142  A    between atoms: _389  and  _391
REMARK  143  A    between atoms: _391  and  _392
REMARK  144  A    between atoms: _391  and  _394
REMARK  145  A    between atoms: _394  and  _395
REMARK  146  A    between atoms: _400  and  _401
REMARK  147  A    between atoms: _403  and  _405
REMARK  148  A    between atoms: _405  and  _406
REMARK  149  A    between atoms: _405  and  _408
REMARK  150  A    between atoms: _408  and  _409
REMARK  151  A    between atoms: _409  and  _410
REMARK  152  A    between atoms: _413  and  _415
REMARK  153  A    between atoms: _415  and  _416
REMARK  154  A    between atoms: _415  and  _418
REMARK  155  A    between atoms: _418  and  _419
REMARK  156  A    between atoms: _419  and  _420
REMARK  157  A    between atoms: _420  and  _421
REMARK  158  A    between atoms: _430  and  _432
REMARK  159  A    between atoms: _432  and  _433
REMARK  160  A    between atoms: _435  and  _437
REMARK  161  A    between atoms: _437  and  _438
REMARK  162  A    between atoms: _437  and  _440
REMARK  163  A    between atoms: _440  and  _441
REMARK  164  A    between atoms: _444  and  _446
REMARK  165  A    between atoms: _446  and  _447
REMARK                            x       y       z     vdW  Elec       q    Type
REMARK                         _______ _______ _______ _____ _____    ______ ____
ROOT
ATOM      1  CA  ASP A   1      20.937  60.942   4.063  0.00  0.00    +0.144 C 
ENDROOT
BRANCH   1   2
ATOM      2  N   ASP A   1      21.025  61.298   2.664  0.00  0.00    -0.239 NA
ATOM      3  H   ASP A   1      21.171  62.293   2.400  0.00  0.00    +0.142 HD
ENDBRANCH   1   2
BRANCH   1   4
ATOM      4  C   ASP A   1      19.512  61.031   4.614  0.00  0.00    +0.225 C 
ATOM      5  O   ASP A   1      19.233  60.415   5.637  0.00  0.00    -0.287 OA
ENDBRANCH   1   4
BRANCH   1   6
ATOM      6  CB  ASP A   1      21.902  61.757   4.948  0.00  0.00    +0.139 C 
BRANCH   6   7
ATOM      7  CG  ASP A   1      21.679  63.281   4.899  0.00  0.00    +0.367 C 
ATOM      8  OD2 ASP A   1      22.196  64.016   5.789  0.00  0.00    -0.246 OA
ATOM      9  OD1 ASP A   1      21.029  63.808   3.971  0.00  0.00    -0.246 OA
ENDBRANCH   6   7
ENDBRANCH   1   6
TORSDOF 4
REMARK  Name = ../refined-set-2016/3ddg/3ddg_pocket.pdb
REMARK  165 active torsions:
REMARK  status: ('A' for Active; 'I' for Inactive)
REMARK    1  A    between atoms: _1  and  _3
REMARK    2  A    between atoms: _3  and  _4
REMARK    3  A    between atoms: _3  and  _6
REMARK    4  A    between atoms: _6  and  _7
REMARK    5  A    between atoms: _12  and  _14
REMARK    6  A    between atoms: _25  and  _28
REMARK    7  A    between atoms: _28  and  _29
REMARK    8  A    between atoms: _36  and  _37
REMARK    9  A    between atoms: _44  and  _45
REMARK   10  A    between atoms: _50  and  _52
REMARK   11  A    between atoms: _52  and  _53
REMARK   12  A    between atoms: _55  and  _57
REMARK   13  A    between atoms: _57  and  _58
REMARK   14  A    between atoms: _57  and  _60
REMARK   15  A    between atoms: _60  and  _61
REMARK   16  A    between atoms: _71  and  _73
REMARK   17  A    between atoms: _73  and  _74
REMARK   18  A    between atoms: _73  and  _76
REMARK   19  A    between atoms: _76  and  _77
REMARK   20  A    between atoms: _80  and  _82
REMARK   21  A    between atoms: _82  and  _83
REMARK   22  A    between atoms: _82  and  _85
REMARK   23  A    between atoms: _85  and  _86
REMARK   24  A    between atoms: _91  and  _92
REMARK   25  A    between atoms: _94  and  _96
REMARK   26  A    between atoms: _96  and  _97
REMARK   27  A    between atoms: _96  and  _99
REMARK   28  A    between atoms: _99  and  _100
REMARK   29  A    between atoms: _100  and  _101
REMARK   30  A    between atoms: _104  and  _106
REMARK   31  A    between atoms: _106  and  _107
REMARK   32  A    between atoms: _106  and  _109
REMARK   33  A    between atoms: _109  and  _110
REMARK   34  A    between atoms: _110  and  _111
REMARK   35  A    between atoms: _113  and  _115
REMARK   36  A    between atoms: _115  and  _116
REMARK   37  A    between atoms: _115  and  _118
REMARK   38  A    between atoms: _118  and  _119
REMARK   39  A    between atoms: _122  and  _124
REMARK   40  A    between atoms: _124  and  _125
REMARK   41  A    between atoms: _124  and  _127
REMARK   42  A    between atoms: _127  and  _128
REMARK   43  A    between atoms: _128  and  _130
REMARK   44  A    between atoms: _130  and  ZN_449
REMARK   45  A    between atoms: _132  and  _133
REMARK   46  A    between atoms: _138  and  _140
REMARK   47  A    between atoms: _140  and  _141
REMARK   48  A    between atoms: _140  and  _143
REMARK   49  A    between atoms: _143  and  _144
REMARK   50  A    between atoms: _150  and  _152
REMARK   51  A    between atoms: _152  and  _153
REMARK   52  A    between atoms: _152  and  _155
REMARK   53  A    between atoms: _155  and  _156
REMARK   54  A    between atoms: _156  and  _157
REMARK   55  A    between atoms: _157  and  _158
REMARK   56  A    between atoms: _167  and  _169
REMARK   57  A    between atoms: _169  and  _170
REMARK   58  A    between atoms: _169  and  _172
REMARK   59  A    between atoms: _172  and  _173
REMARK   60  A    between atoms: _178  and  _179
REMARK   61  A    between atoms: _181  and  _183
REMARK   62  A    between atoms: _183  and  _184
REMARK   63  A    between atoms: _183  and  _186
REMARK   64  A    between atoms: _186  and  _187
REMARK   65  A    between atoms: _189  and  _191
REMARK   66  A    between atoms: _191  and  _192
REMARK   67  A    between atoms: _191  and  _194
REMARK   68  A    between atoms: _194  and  _195
REMARK   69  A    between atoms: _200  and  _201
REMARK   70  A    between atoms: _203  and  _205
REMARK   71  A    between atoms: _205  and  _206
REMARK   72  A    between atoms: _205  and  _208
REMARK   73  A    between atoms: _208  and  _209
REMARK   74  A    between atoms: _212  and  _214
REMARK   75  A    between atoms: _214  and  _215
REMARK   76  A    between atoms: _214  and  _217
REMARK   77  A    between atoms: _217  and  _218
REMARK   78  A    between atoms: _221  and  _223
REMARK   79  A    between atoms: _223  and  _224
REMARK   80  A    between atoms: _223  and  _226
REMARK   81  A    between atoms: _226  and  _227
REMARK   82  A    between atoms: _227  and  _228
REMARK   83  A    between atoms: _228  and  _229
REMARK   84  A    between atoms: _238  and  _240
REMARK   85  A    between atoms: _240  and  _241
REMARK   86  A    between atoms: _243  and  _245
REMARK   87  A    between atoms: _245  and  _246
REMARK   88  A    between atoms: _245  and  _248
REMARK   89  A    between atoms: _248  and  _249
REMARK   90  A    between atoms: _252  and  _254
REMARK   91  A    between atoms: _254  and  _255
REMARK   92  A    between atoms: _254  and  _257
REMARK   93  A    between atoms: _257  and  _258
REMARK   94  A    between atoms: _261  and  _263
REMARK   95  A    between atoms: _263  and  _264
REMARK   96  A    between atoms: _263  and  _266
REMARK   97  A    between atoms: _266  and  _267
REMARK   98  A    between atoms: _273  and  _275
REMARK   99  A    between atoms: _275  and  _276
REMARK  100  A    between atoms: _275  and  _278
REMARK  101  A    between atoms: _278  and  _279
REMARK  102  A    between atoms: _279  and  _280
REMARK  103  A    between atoms: _280  and  _281
REMARK  104  A    between atoms: _290  and  _292
REMARK  105  A    between atoms: _292  and  _293
REMARK  106  A    between atoms: _292  and  _295
REMARK  107  A    between atoms: _295  and  _296
REMARK  108  A    between atoms: _301  and  _302
REMARK  109  A    between atoms: _304  and  _306
REMARK  110  A    between atoms: _306  and  _307
REMARK  111  A    between atoms: _306  and  _309
REMARK  112  A    between atoms: _309  and  _310
REMARK  113  A    between atoms: _313  and  _315
REMARK  114  A    between atoms: _315  and  _316
REMARK  115  A    between atoms: _315  and  _318
REMARK  116  A    between atoms: _318  and  _319
REMARK  117  A    between atoms: _329  and  _331
REMARK  118  A    between atoms: _331  and  _332
REMARK  119  A    between atoms: _331  and  _334
REMARK  120  A    between atoms: _334  and  _335
REMARK  121  A    between atoms: _340  and  _342
REMARK  122  A    between atoms: _342  and  _343
REMARK  123  A    between atoms: _342  and  _345
REMARK  124  A    between atoms: _345  and  _346
REMARK  125  A    between atoms: _350  and  ZN_449
REMARK  126  A    between atoms: _351  and  _353
REMARK  127  A    between atoms: _353  and  _354
REMARK  128  A    between atoms: _353  and  _356
REMARK  129  A    between atoms: _356  and  _357
REMARK  130  A    between atoms: _360  and  _362
REMARK  131  A    between atoms: _362  and  _363
REMARK  132  A    between atoms: _365  and  _367
REMARK  133  A    between atoms: _367  and  _368
REMARK  134  A    between atoms: _367  and  _370
REMARK  135  A    between atoms: _370  and  _371
REMARK  136  A    between atoms: _374  and  _376
REMARK  137  A    between atoms: _376  and  _377
REMARK  138  A    between atoms: _376  and  _379
REMARK  139  A    between atoms: _379  and  _380
REMARK  140  A    between atoms: _383  and  _385
REMARK  141  A    between atoms: _385  and  _386
REMARK  142  A    between atoms: _389  and  _391
REMARK  143  A    between atoms: _391  and  _392
REMARK  144  A    between atoms: _391  and  _394
REMARK  145  A    between atoms: _394  and  _395
REMARK  146  A    between atoms: _400  and  _401
REMARK  147  A    between atoms: _403  and  _405
REMARK  148  A    between atoms: _405  and  _406
REMARK  149  A    between atoms: _405  and  _408
REMARK  150  A    between atoms: _408  and  _409
REMARK  151  A    between atoms: _409  and  _410
REMARK  152  A    between atoms: _413  and  _415
REMARK  153  A    between atoms: _415  and  _416
REMARK  154  A    between atoms: _415  and  _418
REMARK  155  A    between atoms: _418  and  _419
REMARK  156  A    between atoms: _419  and  _420
REMARK  157  A    between atoms: _420  and  _421
REMARK  158  A    between atoms: _430  and  _432
REMARK  159  A    between atoms: _432  and  _433
REMARK  160  A    between atoms: _435  and  _437
REMARK  161  A    between atoms: _437  and  _438
REMARK  162  A    between atoms: _437  and  _440
REMARK  163  A    between atoms: _440  and  _441
REMARK  164  A    between atoms: _444  and  _446
REMARK  165  A    between atoms: _446  and  _447
REMARK                            x       y       z     vdW  Elec       q    Type
REMARK                         _______ _______ _______ _____ _____    ______ ____
ROOT
ATOM      1  CG  TRP A   1      24.810  64.482   0.448  0.00  0.00    -0.002 A 
ATOM      2  CD2 TRP A   1      25.567  64.748   1.645  0.00  0.00    +0.013 A 
ATOM      3  CE2 TRP A   1      24.685  64.640   2.738  0.00  0.00    +0.056 A 
ATOM      4  CZ2 TRP A   1      25.102  64.846   4.063  0.00  0.00    +0.017 A 
ATOM      5  CH2 TRP A   1      26.447  65.124   4.288  0.00  0.00    +0.001 A 
ATOM      6  CZ3 TRP A   1      27.356  65.214   3.194  0.00  0.00    +0.000 A 
ATOM      7  NE1 TRP A   1      23.425  64.362   2.234  0.00  0.00    -0.352 N 
ATOM      8  HE1 TRP A   1      22.558  64.261   2.800  0.00  0.00    +0.166 HD
ATOM      9  CE3 TRP A   1      26.948  65.043   1.909  0.00  0.00    +0.001 A 
ATOM     10  CD1 TRP A   1      23.503  64.241   0.864  0.00  0.00    +0.068 A 
ENDROOT
BRANCH   1  11
ATOM     11  CB  TRP A   1      25.366  64.425  -1.011  0.00  0.00    +0.053 C 
BRANCH  11  12
ATOM     12  CA  TRP A   1      24.483  65.087  -2.049  0.00  0.00    +0.137 C 
BRANCH  12  13
ATOM     13  N   TRP A   1      23.258  64.343  -2.193  0.00  0.00    -0.239 NA
ATOM     14  H   TRP A   1      23.269  63.311  -2.062  0.00  0.00    +0.142 HD
ENDBRANCH  12  13
BRANCH  12  15
ATOM     15  C   TRP A   1      25.206  65.130  -3.392  0.00  0.00    +0.224 C 
ATOM     16  O   TRP A   1      26.367  64.699  -3.484  0.00  0.00    -0.287 OA
ENDBRANCH  12  15
ENDBRANCH  11  12
ENDBRANCH   1  11
TORSDOF 4
REMARK  Name = ../refined-set-2016/3ddg/3ddg_pocket.pdb
REMARK  165 active torsions:
REMARK  status: ('A' for Active; 'I' for Inactive)
REMARK    1  A    between atoms: _1  and  _3
REMARK    2  A    between atoms: _3  and  _4
REMARK    3  A    between atoms: _3  and  _6
REMARK    4  A    between atoms: _6  and  _7
REMARK    5  A    between atoms: _12  and  _14
REMARK    6  A    between atoms: _25  and  _28
REMARK    7  A    between atoms: _28  and  _29
REMARK    8  A    between atoms: _36  and  _37
REMARK    9  A    between atoms: _44  and  _45
REMARK   10  A    between atoms: _50  and  _52
REMARK   11  A    between atoms: _52  and  _53
REMARK   12  A    between atoms: _55  and  _57
REMARK   13  A    between atoms: _57  and  _58
REMARK   14  A    between atoms: _57  and  _60
REMARK   15  A    between atoms: _60  and  _61
REMARK   16  A    between atoms: _71  and  _73
REMARK   17  A    between atoms: _73  and  _74
REMARK   18  A    between atoms: _73  and  _76
REMARK   19  A    between atoms: _76  and  _77
REMARK   20  A    between atoms: _80  and  _82
REMARK   21  A    between atoms: _82  and  _83
REMARK   22  A    between atoms: _82  and  _85
REMARK   23  A    between atoms: _85  and  _86
REMARK   24  A    between atoms: _91  and  _92
REMARK   25  A    between atoms: _94  and  _96
REMARK   26  A    between atoms: _96  and  _97
REMARK   27  A    between atoms: _96  and  _99
REMARK   28  A    between atoms: _99  and  _100
REMARK   29  A    between atoms: _100  and  _101
REMARK   30  A    between atoms: _104  and  _106
REMARK   31  A    between atoms: _106  and  _107
REMARK   32  A    between atoms: _106  and  _109
REMARK   33  A    between atoms: _109  and  _110
REMARK   34  A    between atoms: _110  and  _111
REMARK   35  A    between atoms: _113  and  _115
REMARK   36  A    between atoms: _115  and  _116
REMARK   37  A    between atoms: _115  and  _118
REMARK   38  A    between atoms: _118  and  _119
REMARK   39  A    between atoms: _122  and  _124
REMARK   40  A    between atoms: _124  and  _125
REMARK   41  A    between atoms: _124  and  _127
REMARK   42  A    between atoms: _127  and  _128
REMARK   43  A    between atoms: _128  and  _130
REMARK   44  A    between atoms: _130  and  ZN_449
REMARK   45  A    between atoms: _132  and  _133
REMARK   46  A    between atoms: _138  and  _140
REMARK   47  A    between atoms: _140  and  _141
REMARK   48  A    between atoms: _140  and  _143
REMARK   49  A    between atoms: _143  and  _144
REMARK   50  A    between atoms: _150  and  _152
REMARK   51  A    between atoms: _152  and  _153
REMARK   52  A    between atoms: _152  and  _155
REMARK   53  A    between atoms: _155  and  _156
REMARK   54  A    between atoms: _156  and  _157
REMARK   55  A    between atoms: _157  and  _158
REMARK   56  A    between atoms: _167  and  _169
REMARK   57  A    between atoms: _169  and  _170
REMARK   58  A    between atoms: _169  and  _172
REMARK   59  A    between atoms: _172  and  _173
REMARK   60  A    between atoms: _178  and  _179
REMARK   61  A    between atoms: _181  and  _183
REMARK   62  A    between atoms: _183  and  _184
REMARK   63  A    between atoms: _183  and  _186
REMARK   64  A    between atoms: _186  and  _187
REMARK   65  A    between atoms: _189  and  _191
REMARK   66  A    between atoms: _191  and  _192
REMARK   67  A    between atoms: _191  and  _194
REMARK   68  A    between atoms: _194  and  _195
REMARK   69  A    between atoms: _200  and  _201
REMARK   70  A    between atoms: _203  and  _205
REMARK   71  A    between atoms: _205  and  _206
REMARK   72  A    between atoms: _205  and  _208
REMARK   73  A    between atoms: _208  and  _209
REMARK   74  A    between atoms: _212  and  _214
REMARK   75  A    between atoms: _214  and  _215
REMARK   76  A    between atoms: _214  and  _217
REMARK   77  A    between atoms: _217  and  _218
REMARK   78  A    between atoms: _221  and  _223
REMARK   79  A    between atoms: _223  and  _224
REMARK   80  A    between atoms: _223  and  _226
REMARK   81  A    between atoms: _226  and  _227
REMARK   82  A    between atoms: _227  and  _228
REMARK   83  A    between atoms: _228  and  _229
REMARK   84  A    between atoms: _238  and  _240
REMARK   85  A    between atoms: _240  and  _241
REMARK   86  A    between atoms: _243  and  _245
REMARK   87  A    between atoms: _245  and  _246
REMARK   88  A    between atoms: _245  and  _248
REMARK   89  A    between atoms: _248  and  _249
REMARK   90  A    between atoms: _252  and  _254
REMARK   91  A    between atoms: _254  and  _255
REMARK   92  A    between atoms: _254  and  _257
REMARK   93  A    between atoms: _257  and  _258
REMARK   94  A    between atoms: _261  and  _263
REMARK   95  A    between atoms: _263  and  _264
REMARK   96  A    between atoms: _263  and  _266
REMARK   97  A    between atoms: _266  and  _267
REMARK   98  A    between atoms: _273  and  _275
REMARK   99  A    between atoms: _275  and  _276
REMARK  100  A    between atoms: _275  and  _278
REMARK  101  A    between atoms: _278  and  _279
REMARK  102  A    between atoms: _279  and  _280
REMARK  103  A    between atoms: _280  and  _281
REMARK  104  A    between atoms: _290  and  _292
REMARK  105  A    between atoms: _292  and  _293
REMARK  106  A    between atoms: _292  and  _295
REMARK  107  A    between atoms: _295  and  _296
REMARK  108  A    between atoms: _301  and  _302
REMARK  109  A    between atoms: _304  and  _306
REMARK  110  A    between atoms: _306  and  _307
REMARK  111  A    between atoms: _306  and  _309
REMARK  112  A    between atoms: _309  and  _310
REMARK  113  A    between atoms: _313  and  _315
REMARK  114  A    between atoms: _315  and  _316
REMARK  115  A    between atoms: _315  and  _318
REMARK  116  A    between atoms: _318  and  _319
REMARK  117  A    between atoms: _329  and  _331
REMARK  118  A    between atoms: _331  and  _332
REMARK  119  A    between atoms: _331  and  _334
REMARK  120  A    between atoms: _334  and  _335
REMARK  121  A    between atoms: _340  and  _342
REMARK  122  A    between atoms: _342  and  _343
REMARK  123  A    between atoms: _342  and  _345
REMARK  124  A    between atoms: _345  and  _346
REMARK  125  A    between atoms: _350  and  ZN_449
REMARK  126  A    between atoms: _351  and  _353
REMARK  127  A    between atoms: _353  and  _354
REMARK  128  A    between atoms: _353  and  _356
REMARK  129  A    between atoms: _356  and  _357
REMARK  130  A    between atoms: _360  and  _362
REMARK  131  A    between atoms: _362  and  _363
REMARK  132  A    between atoms: _365  and  _367
REMARK  133  A    between atoms: _367  and  _368
REMARK  134  A    between atoms: _367  and  _370
REMARK  135  A    between atoms: _370  and  _371
REMARK  136  A    between atoms: _374  and  _376
REMARK  137  A    between atoms: _376  and  _377
REMARK  138  A    between atoms: _376  and  _379
REMARK  139  A    between atoms: _379  and  _380
REMARK  140  A    between atoms: _383  and  _385
REMARK  141  A    between atoms: _385  and  _386
REMARK  142  A    between atoms: _389  and  _391
REMARK  143  A    between atoms: _391  and  _392
REMARK  144  A    between atoms: _391  and  _394
REMARK  145  A    between atoms: _394  and  _395
REMARK  146  A    between atoms: _400  and  _401
REMARK  147  A    between atoms: _403  and  _405
REMARK  148  A    between atoms: _405  and  _406
REMARK  149  A    between atoms: _405  and  _408
REMARK  150  A    between atoms: _408  and  _409
REMARK  151  A    between atoms: _409  and  _410
REMARK  152  A    between atoms: _413  and  _415
REMARK  153  A    between atoms: _415  and  _416
REMARK  154  A    between atoms: _415  and  _418
REMARK  155  A    between atoms: _418  and  _419
REMARK  156  A    between atoms: _419  and  _420
REMARK  157  A    between atoms: _420  and  _421
REMARK  158  A    between atoms: _430  and  _432
REMARK  159  A    between atoms: _432  and  _433
REMARK  160  A    between atoms: _435  and  _437
REMARK  161  A    between atoms: _437  and  _438
REMARK  162  A    between atoms: _437  and  _440
REMARK  163  A    between atoms: _440  and  _441
REMARK  164  A    between atoms: _444  and  _446
REMARK  165  A    between atoms: _446  and  _447
REMARK                            x       y       z     vdW  Elec       q    Type
REMARK                         _______ _______ _______ _____ _____    ______ ____
ROOT
ATOM      1  CA  THR A   1      34.703  68.120  -2.493  0.00  0.00    +0.160 C 
ENDROOT
BRANCH   1   2
ATOM      2  N   THR A   1      36.199  68.066  -2.479  0.00  0.00    -0.237 NA
ATOM      3  H   THR A   1      36.684  67.683  -1.643  0.00  0.00    +0.142 HD
ENDBRANCH   1   2
BRANCH   1   4
ATOM      4  CB  THR A   1      34.178  67.515  -1.188  0.00  0.00    +0.134 C 
ATOM      5  CG2 THR A   1      34.612  66.085  -1.049  0.00  0.00    +0.034 C 
BRANCH   4   6
ATOM      6  OG1 THR A   1      34.733  68.277  -0.102  0.00  0.00    -0.383 OA
ATOM      7  HG1 THR A   1      34.410  67.908   0.758  0.00  0.00    +0.210 HD
ENDBRANCH   4   6
ENDBRANCH   1   4
BRANCH   1   8
ATOM      8  C   THR A   1      34.129  69.563  -2.521  0.00  0.00    +0.227 C 
ATOM      9  O   THR A   1      32.963  69.787  -2.920  0.00  0.00    -0.287 OA
ENDBRANCH   1   8
TORSDOF 4
REMARK  Name = ../refined-set-2016/3ddg/3ddg_pocket.pdb
REMARK  165 active torsions:
REMARK  status: ('A' for Active; 'I' for Inactive)
REMARK    1  A    between atoms: _1  and  _3
REMARK    2  A    between atoms: _3  and  _4
REMARK    3  A    between atoms: _3  and  _6
REMARK    4  A    between atoms: _6  and  _7
REMARK    5  A    between atoms: _12  and  _14
REMARK    6  A    between atoms: _25  and  _28
REMARK    7  A    between atoms: _28  and  _29
REMARK    8  A    between atoms: _36  and  _37
REMARK    9  A    between atoms: _44  and  _45
REMARK   10  A    between atoms: _50  and  _52
REMARK   11  A    between atoms: _52  and  _53
REMARK   12  A    between atoms: _55  and  _57
REMARK   13  A    between atoms: _57  and  _58
REMARK   14  A    between atoms: _57  and  _60
REMARK   15  A    between atoms: _60  and  _61
REMARK   16  A    between atoms: _71  and  _73
REMARK   17  A    between atoms: _73  and  _74
REMARK   18  A    between atoms: _73  and  _76
REMARK   19  A    between atoms: _76  and  _77
REMARK   20  A    between atoms: _80  and  _82
REMARK   21  A    between atoms: _82  and  _83
REMARK   22  A    between atoms: _82  and  _85
REMARK   23  A    between atoms: _85  and  _86
REMARK   24  A    between atoms: _91  and  _92
REMARK   25  A    between atoms: _94  and  _96
REMARK   26  A    between atoms: _96  and  _97
REMARK   27  A    between atoms: _96  and  _99
REMARK   28  A    between atoms: _99  and  _100
REMARK   29  A    between atoms: _100  and  _101
REMARK   30  A    between atoms: _104  and  _106
REMARK   31  A    between atoms: _106  and  _107
REMARK   32  A    between atoms: _106  and  _109
REMARK   33  A    between atoms: _109  and  _110
REMARK   34  A    between atoms: _110  and  _111
REMARK   35  A    between atoms: _113  and  _115
REMARK   36  A    between atoms: _115  and  _116
REMARK   37  A    between atoms: _115  and  _118
REMARK   38  A    between atoms: _118  and  _119
REMARK   39  A    between atoms: _122  and  _124
REMARK   40  A    between atoms: _124  and  _125
REMARK   41  A    between atoms: _124  and  _127
REMARK   42  A    between atoms: _127  and  _128
REMARK   43  A    between atoms: _128  and  _130
REMARK   44  A    between atoms: _130  and  ZN_449
REMARK   45  A    between atoms: _132  and  _133
REMARK   46  A    between atoms: _138  and  _140
REMARK   47  A    between atoms: _140  and  _141
REMARK   48  A    between atoms: _140  and  _143
REMARK   49  A    between atoms: _143  and  _144
REMARK   50  A    between atoms: _150  and  _152
REMARK   51  A    between atoms: _152  and  _153
REMARK   52  A    between atoms: _152  and  _155
REMARK   53  A    between atoms: _155  and  _156
REMARK   54  A    between atoms: _156  and  _157
REMARK   55  A    between atoms: _157  and  _158
REMARK   56  A    between atoms: _167  and  _169
REMARK   57  A    between atoms: _169  and  _170
REMARK   58  A    between atoms: _169  and  _172
REMARK   59  A    between atoms: _172  and  _173
REMARK   60  A    between atoms: _178  and  _179
REMARK   61  A    between atoms: _181  and  _183
REMARK   62  A    between atoms: _183  and  _184
REMARK   63  A    between atoms: _183  and  _186
REMARK   64  A    between atoms: _186  and  _187
REMARK   65  A    between atoms: _189  and  _191
REMARK   66  A    between atoms: _191  and  _192
REMARK   67  A    between atoms: _191  and  _194
REMARK   68  A    between atoms: _194  and  _195
REMARK   69  A    between atoms: _200  and  _201
REMARK   70  A    between atoms: _203  and  _205
REMARK   71  A    between atoms: _205  and  _206
REMARK   72  A    between atoms: _205  and  _208
REMARK   73  A    between atoms: _208  and  _209
REMARK   74  A    between atoms: _212  and  _214
REMARK   75  A    between atoms: _214  and  _215
REMARK   76  A    between atoms: _214  and  _217
REMARK   77  A    between atoms: _217  and  _218
REMARK   78  A    between atoms: _221  and  _223
REMARK   79  A    between atoms: _223  and  _224
REMARK   80  A    between atoms: _223  and  _226
REMARK   81  A    between atoms: _226  and  _227
REMARK   82  A    between atoms: _227  and  _228
REMARK   83  A    between atoms: _228  and  _229
REMARK   84  A    between atoms: _238  and  _240
REMARK   85  A    between atoms: _240  and  _241
REMARK   86  A    between atoms: _243  and  _245
REMARK   87  A    between atoms: _245  and  _246
REMARK   88  A    between atoms: _245  and  _248
REMARK   89  A    between atoms: _248  and  _249
REMARK   90  A    between atoms: _252  and  _254
REMARK   91  A    between atoms: _254  and  _255
REMARK   92  A    between atoms: _254  and  _257
REMARK   93  A    between atoms: _257  and  _258
REMARK   94  A    between atoms: _261  and  _263
REMARK   95  A    between atoms: _263  and  _264
REMARK   96  A    between atoms: _263  and  _266
REMARK   97  A    between atoms: _266  and  _267
REMARK   98  A    between atoms: _273  and  _275
REMARK   99  A    between atoms: _275  and  _276
REMARK  100  A    between atoms: _275  and  _278
REMARK  101  A    between atoms: _278  and  _279
REMARK  102  A    between atoms: _279  and  _280
REMARK  103  A    between atoms: _280  and  _281
REMARK  104  A    between atoms: _290  and  _292
REMARK  105  A    between atoms: _292  and  _293
REMARK  106  A    between atoms: _292  and  _295
REMARK  107  A    between atoms: _295  and  _296
REMARK  108  A    between atoms: _301  and  _302
REMARK  109  A    between atoms: _304  and  _306
REMARK  110  A    between atoms: _306  and  _307
REMARK  111  A    between atoms: _306  and  _309
REMARK  112  A    between atoms: _309  and  _310
REMARK  113  A    between atoms: _313  and  _315
REMARK  114  A    between atoms: _315  and  _316
REMARK  115  A    between atoms: _315  and  _318
REMARK  116  A    between atoms: _318  and  _319
REMARK  117  A    between atoms: _329  and  _331
REMARK  118  A    between atoms: _331  and  _332
REMARK  119  A    between atoms: _331  and  _334
REMARK  120  A    between atoms: _334  and  _335
REMARK  121  A    between atoms: _340  and  _342
REMARK  122  A    between atoms: _342  and  _343
REMARK  123  A    between atoms: _342  and  _345
REMARK  124  A    between atoms: _345  and  _346
REMARK  125  A    between atoms: _350  and  ZN_449
REMARK  126  A    between atoms: _351  and  _353
REMARK  127  A    between atoms: _353  and  _354
REMARK  128  A    between atoms: _353  and  _356
REMARK  129  A    between atoms: _356  and  _357
REMARK  130  A    between atoms: _360  and  _362
REMARK  131  A    between atoms: _362  and  _363
REMARK  132  A    between atoms: _365  and  _367
REMARK  133  A    between atoms: _367  and  _368
REMARK  134  A    between atoms: _367  and  _370
REMARK  135  A    between atoms: _370  and  _371
REMARK  136  A    between atoms: _374  and  _376
REMARK  137  A    between atoms: _376  and  _377
REMARK  138  A    between atoms: _376  and  _379
REMARK  139  A    between atoms: _379  and  _380
REMARK  140  A    between atoms: _383  and  _385
REMARK  141  A    between atoms: _385  and  _386
REMARK  142  A    between atoms: _389  and  _391
REMARK  143  A    between atoms: _391  and  _392
REMARK  144  A    between atoms: _391  and  _394
REMARK  145  A    between atoms: _394  and  _395
REMARK  146  A    between atoms: _400  and  _401
REMARK  147  A    between atoms: _403  and  _405
REMARK  148  A    between atoms: _405  and  _406
REMARK  149  A    between atoms: _405  and  _408
REMARK  150  A    between atoms: _408  and  _409
REMARK  151  A    between atoms: _409  and  _410
REMARK  152  A    between atoms: _413  and  _415
REMARK  153  A    between atoms: _415  and  _416
REMARK  154  A    between atoms: _415  and  _418
REMARK  155  A    between atoms: _418  and  _419
REMARK  156  A    between atoms: _419  and  _420
REMARK  157  A    between atoms: _420  and  _421
REMARK  158  A    between atoms: _430  and  _432
REMARK  159  A    between atoms: _432  and  _433
REMARK  160  A    between atoms: _435  and  _437
REMARK  161  A    between atoms: _437  and  _438
REMARK  162  A    between atoms: _437  and  _440
REMARK  163  A    between atoms: _440  and  _441
REMARK  164  A    between atoms: _444  and  _446
REMARK  165  A    between atoms: _446  and  _447
REMARK                            x       y       z     vdW  Elec       q    Type
REMARK                         _______ _______ _______ _____ _____    ______ ____
ROOT
ATOM      1  C   THR A   1      33.498  72.166   2.489  0.00  0.00    +0.241 C 
ATOM      2  O   THR A   1      33.075  71.829   3.561  0.00  0.00    -0.274 OA
ATOM      3  N   ALA A   2      34.570  72.941   2.344  0.00  0.00    -0.298 N 
ATOM      4  H   ALA A   2      34.959  73.090   1.391  0.00  0.00    +0.150 HD
ENDROOT
BRANCH   3   5
ATOM      5  CA  ALA A   2      35.216  73.588   3.481  0.00  0.00    +0.137 C 
ATOM      6  CB  ALA A   2      36.739  73.371   3.439  0.00  0.00    +0.030 C 
BRANCH   5   7
ATOM      7  C   ALA A   2      34.893  75.096   3.561  0.00  0.00    +0.227 C 
ATOM      8  O   ALA A   2      34.431  75.673   2.619  0.00  0.00    -0.286 OA
ENDBRANCH   5   7
ENDBRANCH   3   5
BRANCH   1   9
ATOM      9  CA  THR A   1      32.811  71.682   1.209  0.00  0.00    +0.172 C 
BRANCH   9  10
ATOM     10  N   THR A   1      33.735  71.527   0.110  0.00  0.00    -0.236 NA
ATOM     11  H   THR A   1      34.539  70.874   0.202  0.00  0.00    +0.142 HD
ENDBRANCH   9  10
BRANCH   9  12
ATOM     12  CB  THR A   1      32.045  70.381   1.503  0.00  0.00    +0.135 C 
ATOM     13  CG2 THR A   1      31.236  69.924   0.299  0.00  0.00    +0.034 C 
BRANCH  12  14
ATOM     14  OG1 THR A   1      32.963  69.361   1.862  0.00  0.00    -0.383 OA
ATOM     15  HG1 THR A   1      33.595  69.210   1.115  0.00  0.00    +0.210 HD
ENDBRANCH  12  14
ENDBRANCH   9  12
ENDBRANCH   1   9
TORSDOF 6
REMARK  Name = ../refined-set-2016/3ddg/3ddg_pocket.pdb
REMARK  165 active torsions:
REMARK  status: ('A' for Active; 'I' for Inactive)
REMARK    1  A    between atoms: _1  and  _3
REMARK    2  A    between atoms: _3  and  _4
REMARK    3  A    between atoms: _3  and  _6
REMARK    4  A    between atoms: _6  and  _7
REMARK    5  A    between atoms: _12  and  _14
REMARK    6  A    between atoms: _25  and  _28
REMARK    7  A    between atoms: _28  and  _29
REMARK    8  A    between atoms: _36  and  _37
REMARK    9  A    between atoms: _44  and  _45
REMARK   10  A    between atoms: _50  and  _52
REMARK   11  A    between atoms: _52  and  _53
REMARK   12  A    between atoms: _55  and  _57
REMARK   13  A    between atoms: _57  and  _58
REMARK   14  A    between atoms: _57  and  _60
REMARK   15  A    between atoms: _60  and  _61
REMARK   16  A    between atoms: _71  and  _73
REMARK   17  A    between atoms: _73  and  _74
REMARK   18  A    between atoms: _73  and  _76
REMARK   19  A    between atoms: _76  and  _77
REMARK   20  A    between atoms: _80  and  _82
REMARK   21  A    between atoms: _82  and  _83
REMARK   22  A    between atoms: _82  and  _85
REMARK   23  A    between atoms: _85  and  _86
REMARK   24  A    between atoms: _91  and  _92
REMARK   25  A    between atoms: _94  and  _96
REMARK   26  A    between atoms: _96  and  _97
REMARK   27  A    between atoms: _96  and  _99
REMARK   28  A    between atoms: _99  and  _100
REMARK   29  A    between atoms: _100  and  _101
REMARK   30  A    between atoms: _104  and  _106
REMARK   31  A    between atoms: _106  and  _107
REMARK   32  A    between atoms: _106  and  _109
REMARK   33  A    between atoms: _109  and  _110
REMARK   34  A    between atoms: _110  and  _111
REMARK   35  A    between atoms: _113  and  _115
REMARK   36  A    between atoms: _115  and  _116
REMARK   37  A    between atoms: _115  and  _118
REMARK   38  A    between atoms: _118  and  _119
REMARK   39  A    between atoms: _122  and  _124
REMARK   40  A    between atoms: _124  and  _125
REMARK   41  A    between atoms: _124  and  _127
REMARK   42  A    between atoms: _127  and  _128
REMARK   43  A    between atoms: _128  and  _130
REMARK   44  A    between atoms: _130  and  ZN_449
REMARK   45  A    between atoms: _132  and  _133
REMARK   46  A    between atoms: _138  and  _140
REMARK   47  A    between atoms: _140  and  _141
REMARK   48  A    between atoms: _140  and  _143
REMARK   49  A    between atoms: _143  and  _144
REMARK   50  A    between atoms: _150  and  _152
REMARK   51  A    between atoms: _152  and  _153
REMARK   52  A    between atoms: _152  and  _155
REMARK   53  A    between atoms: _155  and  _156
REMARK   54  A    between atoms: _156  and  _157
REMARK   55  A    between atoms: _157  and  _158
REMARK   56  A    between atoms: _167  and  _169
REMARK   57  A    between atoms: _169  and  _170
REMARK   58  A    between atoms: _169  and  _172
REMARK   59  A    between atoms: _172  and  _173
REMARK   60  A    between atoms: _178  and  _179
REMARK   61  A    between atoms: _181  and  _183
REMARK   62  A    between atoms: _183  and  _184
REMARK   63  A    between atoms: _183  and  _186
REMARK   64  A    between atoms: _186  and  _187
REMARK   65  A    between atoms: _189  and  _191
REMARK   66  A    between atoms: _191  and  _192
REMARK   67  A    between atoms: _191  and  _194
REMARK   68  A    between atoms: _194  and  _195
REMARK   69  A    between atoms: _200  and  _201
REMARK   70  A    between atoms: _203  and  _205
REMARK   71  A    between atoms: _205  and  _206
REMARK   72  A    between atoms: _205  and  _208
REMARK   73  A    between atoms: _208  and  _209
REMARK   74  A    between atoms: _212  and  _214
REMARK   75  A    between atoms: _214  and  _215
REMARK   76  A    between atoms: _214  and  _217
REMARK   77  A    between atoms: _217  and  _218
REMARK   78  A    between atoms: _221  and  _223
REMARK   79  A    between atoms: _223  and  _224
REMARK   80  A    between atoms: _223  and  _226
REMARK   81  A    between atoms: _226  and  _227
REMARK   82  A    between atoms: _227  and  _228
REMARK   83  A    between atoms: _228  and  _229
REMARK   84  A    between atoms: _238  and  _240
REMARK   85  A    between atoms: _240  and  _241
REMARK   86  A    between atoms: _243  and  _245
REMARK   87  A    between atoms: _245  and  _246
REMARK   88  A    between atoms: _245  and  _248
REMARK   89  A    between atoms: _248  and  _249
REMARK   90  A    between atoms: _252  and  _254
REMARK   91  A    between atoms: _254  and  _255
REMARK   92  A    between atoms: _254  and  _257
REMARK   93  A    between atoms: _257  and  _258
REMARK   94  A    between atoms: _261  and  _263
REMARK   95  A    between atoms: _263  and  _264
REMARK   96  A    between atoms: _263  and  _266
REMARK   97  A    between atoms: _266  and  _267
REMARK   98  A    between atoms: _273  and  _275
REMARK   99  A    between atoms: _275  and  _276
REMARK  100  A    between atoms: _275  and  _278
REMARK  101  A    between atoms: _278  and  _279
REMARK  102  A    between atoms: _279  and  _280
REMARK  103  A    between atoms: _280  and  _281
REMARK  104  A    between atoms: _290  and  _292
REMARK  105  A    between atoms: _292  and  _293
REMARK  106  A    between atoms: _292  and  _295
REMARK  107  A    between atoms: _295  and  _296
REMARK  108  A    between atoms: _301  and  _302
REMARK  109  A    between atoms: _304  and  _306
REMARK  110  A    between atoms: _306  and  _307
REMARK  111  A    between atoms: _306  and  _309
REMARK  112  A    between atoms: _309  and  _310
REMARK  113  A    between atoms: _313  and  _315
REMARK  114  A    between atoms: _315  and  _316
REMARK  115  A    between atoms: _315  and  _318
REMARK  116  A    between atoms: _318  and  _319
REMARK  117  A    between atoms: _329  and  _331
REMARK  118  A    between atoms: _331  and  _332
REMARK  119  A    between atoms: _331  and  _334
REMARK  120  A    between atoms: _334  and  _335
REMARK  121  A    between atoms: _340  and  _342
REMARK  122  A    between atoms: _342  and  _343
REMARK  123  A    between atoms: _342  and  _345
REMARK  124  A    between atoms: _345  and  _346
REMARK  125  A    between atoms: _350  and  ZN_449
REMARK  126  A    between atoms: _351  and  _353
REMARK  127  A    between atoms: _353  and  _354
REMARK  128  A    between atoms: _353  and  _356
REMARK  129  A    between atoms: _356  and  _357
REMARK  130  A    between atoms: _360  and  _362
REMARK  131  A    between atoms: _362  and  _363
REMARK  132  A    between atoms: _365  and  _367
REMARK  133  A    between atoms: _367  and  _368
REMARK  134  A    between atoms: _367  and  _370
REMARK  135  A    between atoms: _370  and  _371
REMARK  136  A    between atoms: _374  and  _376
REMARK  137  A    between atoms: _376  and  _377
REMARK  138  A    between atoms: _376  and  _379
REMARK  139  A    between atoms: _379  and  _380
REMARK  140  A    between atoms: _383  and  _385
REMARK  141  A    between atoms: _385  and  _386
REMARK  142  A    between atoms: _389  and  _391
REMARK  143  A    between atoms: _391  and  _392
REMARK  144  A    between atoms: _391  and  _394
REMARK  145  A    between atoms: _394  and  _395
REMARK  146  A    between atoms: _400  and  _401
REMARK  147  A    between atoms: _403  and  _405
REMARK  148  A    between atoms: _405  and  _406
REMARK  149  A    between atoms: _405  and  _408
REMARK  150  A    between atoms: _408  and  _409
REMARK  151  A    between atoms: _409  and  _410
REMARK  152  A    between atoms: _413  and  _415
REMARK  153  A    between atoms: _415  and  _416
REMARK  154  A    between atoms: _415  and  _418
REMARK  155  A    between atoms: _418  and  _419
REMARK  156  A    between atoms: _419  and  _420
REMARK  157  A    between atoms: _420  and  _421
REMARK  158  A    between atoms: _430  and  _432
REMARK  159  A    between atoms: _432  and  _433
REMARK  160  A    between atoms: _435  and  _437
REMARK  161  A    between atoms: _437  and  _438
REMARK  162  A    between atoms: _437  and  _440
REMARK  163  A    between atoms: _440  and  _441
REMARK  164  A    between atoms: _444  and  _446
REMARK  165  A    between atoms: _446  and  _447
REMARK                            x       y       z     vdW  Elec       q    Type
REMARK                         _______ _______ _______ _____ _____    ______ ____
ROOT
ATOM      1  CG  TYR A   1      27.607  69.162   2.047  0.00  0.00    -0.020 A 
ATOM      2  CD2 TYR A   1      27.511  70.271   2.852  0.00  0.00    -0.001 A 
ATOM      3  CE2 TYR A   1      28.412  70.497   3.876  0.00  0.00    +0.036 A 
ATOM      4  CZ  TYR A   1      29.427  69.601   4.103  0.00  0.00    +0.134 A 
ATOM      5  CE1 TYR A   1      29.521  68.486   3.318  0.00  0.00    +0.036 A 
ATOM      6  CD1 TYR A   1      28.620  68.263   2.313  0.00  0.00    -0.001 A 
ENDROOT
BRANCH   4   7
ATOM      7  OH  TYR A   1      30.326  69.822   5.123  0.00  0.00    -0.506 OA
ATOM      8  HH  TYR A   1      30.278  69.076   5.772  0.00  0.00    +0.292 HD
ENDBRANCH   4   7
BRANCH   1   9
ATOM      9  CB  TYR A   1      26.576  68.879   0.966  0.00  0.00    +0.051 C 
BRANCH   9  10
ATOM     10  CA  TYR A   1      26.755  69.561  -0.393  0.00  0.00    +0.137 C 
BRANCH  10  11
ATOM     11  N   TYR A   1      26.949  71.006  -0.262  0.00  0.00    -0.239 NA
ATOM     12  H   TYR A   1      26.425  71.526   0.471  0.00  0.00    +0.142 HD
ENDBRANCH  10  11
BRANCH  10  13
ATOM     13  C   TYR A   1      25.548  69.198  -1.254  0.00  0.00    +0.224 C 
ATOM     14  O   TYR A   1      25.633  68.385  -2.138  0.00  0.00    -0.287 OA
ENDBRANCH  10  13
ENDBRANCH   9  10
ENDBRANCH   1   9
TORSDOF 5
REMARK  Name = ../refined-set-2016/3ddg/3ddg_pocket.pdb
REMARK  165 active torsions:
REMARK  status: ('A' for Active; 'I' for Inactive)
REMARK    1  A    between atoms: _1  and  _3
REMARK    2  A    between atoms: _3  and  _4
REMARK    3  A    between atoms: _3  and  _6
REMARK    4  A    between atoms: _6  and  _7
REMARK    5  A    between atoms: _12  and  _14
REMARK    6  A    between atoms: _25  and  _28
REMARK    7  A    between atoms: _28  and  _29
REMARK    8  A    between atoms: _36  and  _37
REMARK    9  A    between atoms: _44  and  _45
REMARK   10  A    between atoms: _50  and  _52
REMARK   11  A    between atoms: _52  and  _53
REMARK   12  A    between atoms: _55  and  _57
REMARK   13  A    between atoms: _57  and  _58
REMARK   14  A    between atoms: _57  and  _60
REMARK   15  A    between atoms: _60  and  _61
REMARK   16  A    between atoms: _71  and  _73
REMARK   17  A    between atoms: _73  and  _74
REMARK   18  A    between atoms: _73  and  _76
REMARK   19  A    between atoms: _76  and  _77
REMARK   20  A    between atoms: _80  and  _82
REMARK   21  A    between atoms: _82  and  _83
REMARK   22  A    between atoms: _82  and  _85
REMARK   23  A    between atoms: _85  and  _86
REMARK   24  A    between atoms: _91  and  _92
REMARK   25  A    between atoms: _94  and  _96
REMARK   26  A    between atoms: _96  and  _97
REMARK   27  A    between atoms: _96  and  _99
REMARK   28  A    between atoms: _99  and  _100
REMARK   29  A    between atoms: _100  and  _101
REMARK   30  A    between atoms: _104  and  _106
REMARK   31  A    between atoms: _106  and  _107
REMARK   32  A    between atoms: _106  and  _109
REMARK   33  A    between atoms: _109  and  _110
REMARK   34  A    between atoms: _110  and  _111
REMARK   35  A    between atoms: _113  and  _115
REMARK   36  A    between atoms: _115  and  _116
REMARK   37  A    between atoms: _115  and  _118
REMARK   38  A    between atoms: _118  and  _119
REMARK   39  A    between atoms: _122  and  _124
REMARK   40  A    between atoms: _124  and  _125
REMARK   41  A    between atoms: _124  and  _127
REMARK   42  A    between atoms: _127  and  _128
REMARK   43  A    between atoms: _128  and  _130
REMARK   44  A    between atoms: _130  and  ZN_449
REMARK   45  A    between atoms: _132  and  _133
REMARK   46  A    between atoms: _138  and  _140
REMARK   47  A    between atoms: _140  and  _141
REMARK   48  A    between atoms: _140  and  _143
REMARK   49  A    between atoms: _143  and  _144
REMARK   50  A    between atoms: _150  and  _152
REMARK   51  A    between atoms: _152  and  _153
REMARK   52  A    between atoms: _152  and  _155
REMARK   53  A    between atoms: _155  and  _156
REMARK   54  A    between atoms: _156  and  _157
REMARK   55  A    between atoms: _157  and  _158
REMARK   56  A    between atoms: _167  and  _169
REMARK   57  A    between atoms: _169  and  _170
REMARK   58  A    between atoms: _169  and  _172
REMARK   59  A    between atoms: _172  and  _173
REMARK   60  A    between atoms: _178  and  _179
REMARK   61  A    between atoms: _181  and  _183
REMARK   62  A    between atoms: _183  and  _184
REMARK   63  A    between atoms: _183  and  _186
REMARK   64  A    between atoms: _186  and  _187
REMARK   65  A    between atoms: _189  and  _191
REMARK   66  A    between atoms: _191  and  _192
REMARK   67  A    between atoms: _191  and  _194
REMARK   68  A    between atoms: _194  and  _195
REMARK   69  A    between atoms: _200  and  _201
REMARK   70  A    between atoms: _203  and  _205
REMARK   71  A    between atoms: _205  and  _206
REMARK   72  A    between atoms: _205  and  _208
REMARK   73  A    between atoms: _208  and  _209
REMARK   74  A    between atoms: _212  and  _214
REMARK   75  A    between atoms: _214  and  _215
REMARK   76  A    between atoms: _214  and  _217
REMARK   77  A    between atoms: _217  and  _218
REMARK   78  A    between atoms: _221  and  _223
REMARK   79  A    between atoms: _223  and  _224
REMARK   80  A    between atoms: _223  and  _226
REMARK   81  A    between atoms: _226  and  _227
REMARK   82  A    between atoms: _227  and  _228
REMARK   83  A    between atoms: _228  and  _229
REMARK   84  A    between atoms: _238  and  _240
REMARK   85  A    between atoms: _240  and  _241
REMARK   86  A    between atoms: _243  and  _245
REMARK   87  A    between atoms: _245  and  _246
REMARK   88  A    between atoms: _245  and  _248
REMARK   89  A    between atoms: _248  and  _249
REMARK   90  A    between atoms: _252  and  _254
REMARK   91  A    between atoms: _254  and  _255
REMARK   92  A    between atoms: _254  and  _257
REMARK   93  A    between atoms: _257  and  _258
REMARK   94  A    between atoms: _261  and  _263
REMARK   95  A    between atoms: _263  and  _264
REMARK   96  A    between atoms: _263  and  _266
REMARK   97  A    between atoms: _266  and  _267
REMARK   98  A    between atoms: _273  and  _275
REMARK   99  A    between atoms: _275  and  _276
REMARK  100  A    between atoms: _275  and  _278
REMARK  101  A    between atoms: _278  and  _279
REMARK  102  A    between atoms: _279  and  _280
REMARK  103  A    between atoms: _280  and  _281
REMARK  104  A    between atoms: _290  and  _292
REMARK  105  A    between atoms: _292  and  _293
REMARK  106  A    between atoms: _292  and  _295
REMARK  107  A    between atoms: _295  and  _296
REMARK  108  A    between atoms: _301  and  _302
REMARK  109  A    between atoms: _304  and  _306
REMARK  110  A    between atoms: _306  and  _307
REMARK  111  A    between atoms: _306  and  _309
REMARK  112  A    between atoms: _309  and  _310
REMARK  113  A    between atoms: _313  and  _315
REMARK  114  A    between atoms: _315  and  _316
REMARK  115  A    between atoms: _315  and  _318
REMARK  116  A    between atoms: _318  and  _319
REMARK  117  A    between atoms: _329  and  _331
REMARK  118  A    between atoms: _331  and  _332
REMARK  119  A    between atoms: _331  and  _334
REMARK  120  A    between atoms: _334  and  _335
REMARK  121  A    between atoms: _340  and  _342
REMARK  122  A    between atoms: _342  and  _343
REMARK  123  A    between atoms: _342  and  _345
REMARK  124  A    between atoms: _345  and  _346
REMARK  125  A    between atoms: _350  and  ZN_449
REMARK  126  A    between atoms: _351  and  _353
REMARK  127  A    between atoms: _353  and  _354
REMARK  128  A    between atoms: _353  and  _356
REMARK  129  A    between atoms: _356  and  _357
REMARK  130  A    between atoms: _360  and  _362
REMARK  131  A    between atoms: _362  and  _363
REMARK  132  A    between atoms: _365  and  _367
REMARK  133  A    between atoms: _367  and  _368
REMARK  134  A    between atoms: _367  and  _370
REMARK  135  A    between atoms: _370  and  _371
REMARK  136  A    between atoms: _374  and  _376
REMARK  137  A    between atoms: _376  and  _377
REMARK  138  A    between atoms: _376  and  _379
REMARK  139  A    between atoms: _379  and  _380
REMARK  140  A    between atoms: _383  and  _385
REMARK  141  A    between atoms: _385  and  _386
REMARK  142  A    between atoms: _389  and  _391
REMARK  143  A    between atoms: _391  and  _392
REMARK  144  A    between atoms: _391  and  _394
REMARK  145  A    between atoms: _394  and  _395
REMARK  146  A    between atoms: _400  and  _401
REMARK  147  A    between atoms: _403  and  _405
REMARK  148  A    between atoms: _405  and  _406
REMARK  149  A    between atoms: _405  and  _408
REMARK  150  A    between atoms: _408  and  _409
REMARK  151  A    between atoms: _409  and  _410
REMARK  152  A    between atoms: _413  and  _415
REMARK  153  A    between atoms: _415  and  _416
REMARK  154  A    between atoms: _415  and  _418
REMARK  155  A    between atoms: _418  and  _419
REMARK  156  A    between atoms: _419  and  _420
REMARK  157  A    between atoms: _420  and  _421
REMARK  158  A    between atoms: _430  and  _432
REMARK  159  A    between atoms: _432  and  _433
REMARK  160  A    between atoms: _435  and  _437
REMARK  161  A    between atoms: _437  and  _438
REMARK  162  A    between atoms: _437  and  _440
REMARK  163  A    between atoms: _440  and  _441
REMARK  164  A    between atoms: _444  and  _446
REMARK  165  A    between atoms: _446  and  _447
REMARK                            x       y       z     vdW  Elec       q    Type
REMARK                         _______ _______ _______ _____ _____    ______ ____
ROOT
ATOM      1  CA  ARG A   2      25.347  69.769   7.216  0.00  0.00    +0.149 C 
ENDROOT
BRANCH   1   4
ATOM      2  C   GLU A   1      23.289  71.027   7.562  0.00  0.00    +0.238 C 
ATOM      3  O   GLU A   1      22.781  70.108   8.222  0.00  0.00    -0.274 OA
ATOM      4  N   ARG A   2      24.472  70.916   6.951  0.00  0.00    -0.297 N 
ATOM      5  H   ARG A   2      24.776  71.651   6.280  0.00  0.00    +0.150 HD
BRANCH   2   6
ATOM      6  CA  GLU A   1      22.565  72.344   7.364  0.00  0.00    +0.145 C 
BRANCH   6   7
ATOM      7  N   GLU A   1      22.809  73.006   6.072  0.00  0.00    -0.238 NA
ATOM      8  H   GLU A   1      23.217  73.963   6.070  0.00  0.00    +0.142 HD
ENDBRANCH   6   7
BRANCH   6   9
ATOM      9  CB  GLU A   1      21.058  72.111   7.543  0.00  0.00    +0.038 C 
BRANCH   9  10
ATOM     10  CG  GLU A   1      20.219  73.360   7.270  0.00  0.00    +0.116 C 
BRANCH  10  11
ATOM     11  CD  GLU A   1      18.898  73.363   8.023  0.00  0.00    +0.365 C 
ATOM     12  OE2 GLU A   1      18.866  73.886   9.159  0.00  0.00    -0.246 OA
ATOM     13  OE1 GLU A   1      17.900  72.857   7.488  0.00  0.00    -0.246 OA
ENDBRANCH  10  11
ENDBRANCH   9  10
ENDBRANCH   6   9
ENDBRANCH   2   6
ENDBRANCH   1   4
BRANCH   1  14
ATOM     14  C   ARG A   2      26.576  70.108   8.074  0.00  0.00    +0.241 C 
ATOM     15  N   GLY A   3      26.675  71.340   8.578  0.00  0.00    -0.295 N 
ATOM     16  H   GLY A   3      25.960  72.049   8.319  0.00  0.00    +0.150 HD
ATOM     17  O   ARG A   2      27.454  69.241   8.259  0.00  0.00    -0.273 OA
BRANCH  15  18
ATOM     18  CA  GLY A   3      27.750  71.721   9.477  0.00  0.00    +0.176 C 
BRANCH  18  19
ATOM     19  C   GLY A   3      28.780  72.741   8.947  0.00  0.00    +0.243 C 
ATOM     20  O   GLY A   3      29.610  73.253   9.722  0.00  0.00    -0.273 OA
ATOM     21  N   LEU A   4      28.711  73.045   7.650  0.00  0.00    -0.297 N 
ATOM     22  H   LEU A   4      27.970  72.601   7.070  0.00  0.00    +0.150 HD
BRANCH  21  23
ATOM     23  CA  LEU A   4      29.650  73.991   7.006  0.00  0.00    +0.149 C 
BRANCH  23  24
ATOM     24  C   LEU A   4      29.383  75.426   7.516  0.00  0.00    +0.241 C 
ATOM     25  O   LEU A   4      30.333  76.213   7.744  0.00  0.00    -0.273 OA
ATOM     26  N   GLY A   5      28.095  75.758   7.706  0.00  0.00    -0.296 N 
ATOM     27  H   GLY A   5      27.338  75.094   7.447  0.00  0.00    +0.150 HD
BRANCH  26  28
ATOM     28  CA  GLY A   5      27.768  77.064   8.281  0.00  0.00    +0.163 C 
BRANCH  28  29
ATOM     29  C   GLY A   5      28.007  78.243   7.342  0.00  0.00    +0.229 C 
ATOM     30  O   GLY A   5      28.243  79.380   7.806  0.00  0.00    -0.286 OA
ENDBRANCH  28  29
ENDBRANCH  26  28
ENDBRANCH  23  24
BRANCH  23  31
ATOM     31  CB  LEU A   4      29.586  73.873   5.462  0.00  0.00    +0.029 C 
BRANCH  31  32
ATOM     32  CG  LEU A   4      30.376  74.933   4.656  0.00  0.00    +0.002 C 
ATOM     33  CD2 LEU A   4      31.842  74.891   5.132  0.00  0.00    +0.000 C 
ATOM     34  CD1 LEU A   4      30.255  74.761   3.152  0.00  0.00    +0.000 C 
ENDBRANCH  31  32
ENDBRANCH  23  31
ENDBRANCH  21  23
ENDBRANCH  18  19
ENDBRANCH  15  18
ENDBRANCH   1  14
BRANCH   1  35
ATOM     35  CB  ARG A   2      25.780  69.093   5.882  0.00  0.00    +0.033 C 
BRANCH  35  36
ATOM     36  CG  ARG A   2      24.583  68.488   5.079  0.00  0.00    +0.045 C 
BRANCH  36  37
ATOM     37  CD  ARG A   2      23.745  67.577   5.957  0.00  0.00    +0.174 C 
BRANCH  37  38
ATOM     38  NE  ARG A   2      22.671  66.867   5.277  0.00  0.00    -0.265 N 
ATOM     39  CZ  ARG A   2      21.472  67.403   4.998  0.00  0.00    +0.342 C 
ATOM     40  NH2 ARG A   2      21.233  68.696   5.271  0.00  0.00    -0.292 N 
ATOM     41 HH21 ARG A   2      21.977  69.283   5.699  0.00  0.00    +0.255 HD
ATOM     42 HH22 ARG A   2      20.304  69.110   5.054  0.00  0.00    +0.255 HD
ATOM     43  NH1 ARG A   2      20.519  66.641   4.445  0.00  0.00    -0.292 N 
ATOM     44 HH11 ARG A   2      20.710  65.641   4.234  0.00  0.00    +0.255 HD
ATOM     45 HH12 ARG A   2      19.588  67.050   4.226  0.00  0.00    +0.255 HD
ATOM     46  HE  ARG A   2      22.843  65.883   4.989  0.00  0.00    +0.259 HD
ENDBRANCH  37  38
ENDBRANCH  36  37
ENDBRANCH  35  36
ENDBRANCH   1  35
TORSDOF 19
REMARK  Name = ../refined-set-2016/3ddg/3ddg_pocket.pdb
REMARK  165 active torsions:
REMARK  status: ('A' for Active; 'I' for Inactive)
REMARK    1  A    between atoms: _1  and  _3
REMARK    2  A    between atoms: _3  and  _4
REMARK    3  A    between atoms: _3  and  _6
REMARK    4  A    between atoms: _6  and  _7
REMARK    5  A    between atoms: _12  and  _14
REMARK    6  A    between atoms: _25  and  _28
REMARK    7  A    between atoms: _28  and  _29
REMARK    8  A    between atoms: _36  and  _37
REMARK    9  A    between atoms: _44  and  _45
REMARK   10  A    between atoms: _50  and  _52
REMARK   11  A    between atoms: _52  and  _53
REMARK   12  A    between atoms: _55  and  _57
REMARK   13  A    between atoms: _57  and  _58
REMARK   14  A    between atoms: _57  and  _60
REMARK   15  A    between atoms: _60  and  _61
REMARK   16  A    between atoms: _71  and  _73
REMARK   17  A    between atoms: _73  and  _74
REMARK   18  A    between atoms: _73  and  _76
REMARK   19  A    between atoms: _76  and  _77
REMARK   20  A    between atoms: _80  and  _82
REMARK   21  A    between atoms: _82  and  _83
REMARK   22  A    between atoms: _82  and  _85
REMARK   23  A    between atoms: _85  and  _86
REMARK   24  A    between atoms: _91  and  _92
REMARK   25  A    between atoms: _94  and  _96
REMARK   26  A    between atoms: _96  and  _97
REMARK   27  A    between atoms: _96  and  _99
REMARK   28  A    between atoms: _99  and  _100
REMARK   29  A    between atoms: _100  and  _101
REMARK   30  A    between atoms: _104  and  _106
REMARK   31  A    between atoms: _106  and  _107
REMARK   32  A    between atoms: _106  and  _109
REMARK   33  A    between atoms: _109  and  _110
REMARK   34  A    between atoms: _110  and  _111
REMARK   35  A    between atoms: _113  and  _115
REMARK   36  A    between atoms: _115  and  _116
REMARK   37  A    between atoms: _115  and  _118
REMARK   38  A    between atoms: _118  and  _119
REMARK   39  A    between atoms: _122  and  _124
REMARK   40  A    between atoms: _124  and  _125
REMARK   41  A    between atoms: _124  and  _127
REMARK   42  A    between atoms: _127  and  _128
REMARK   43  A    between atoms: _128  and  _130
REMARK   44  A    between atoms: _130  and  ZN_449
REMARK   45  A    between atoms: _132  and  _133
REMARK   46  A    between atoms: _138  and  _140
REMARK   47  A    between atoms: _140  and  _141
REMARK   48  A    between atoms: _140  and  _143
REMARK   49  A    between atoms: _143  and  _144
REMARK   50  A    between atoms: _150  and  _152
REMARK   51  A    between atoms: _152  and  _153
REMARK   52  A    between atoms: _152  and  _155
REMARK   53  A    between atoms: _155  and  _156
REMARK   54  A    between atoms: _156  and  _157
REMARK   55  A    between atoms: _157  and  _158
REMARK   56  A    between atoms: _167  and  _169
REMARK   57  A    between atoms: _169  and  _170
REMARK   58  A    between atoms: _169  and  _172
REMARK   59  A    between atoms: _172  and  _173
REMARK   60  A    between atoms: _178  and  _179
REMARK   61  A    between atoms: _181  and  _183
REMARK   62  A    between atoms: _183  and  _184
REMARK   63  A    between atoms: _183  and  _186
REMARK   64  A    between atoms: _186  and  _187
REMARK   65  A    between atoms: _189  and  _191
REMARK   66  A    between atoms: _191  and  _192
REMARK   67  A    between atoms: _191  and  _194
REMARK   68  A    between atoms: _194  and  _195
REMARK   69  A    between atoms: _200  and  _201
REMARK   70  A    between atoms: _203  and  _205
REMARK   71  A    between atoms: _205  and  _206
REMARK   72  A    between atoms: _205  and  _208
REMARK   73  A    between atoms: _208  and  _209
REMARK   74  A    between atoms: _212  and  _214
REMARK   75  A    between atoms: _214  and  _215
REMARK   76  A    between atoms: _214  and  _217
REMARK   77  A    between atoms: _217  and  _218
REMARK   78  A    between atoms: _221  and  _223
REMARK   79  A    between atoms: _223  and  _224
REMARK   80  A    between atoms: _223  and  _226
REMARK   81  A    between atoms: _226  and  _227
REMARK   82  A    between atoms: _227  and  _228
REMARK   83  A    between atoms: _228  and  _229
REMARK   84  A    between atoms: _238  and  _240
REMARK   85  A    between atoms: _240  and  _241
REMARK   86  A    between atoms: _243  and  _245
REMARK   87  A    between atoms: _245  and  _246
REMARK   88  A    between atoms: _245  and  _248
REMARK   89  A    between atoms: _248  and  _249
REMARK   90  A    between atoms: _252  and  _254
REMARK   91  A    between atoms: _254  and  _255
REMARK   92  A    between atoms: _254  and  _257
REMARK   93  A    between atoms: _257  and  _258
REMARK   94  A    between atoms: _261  and  _263
REMARK   95  A    between atoms: _263  and  _264
REMARK   96  A    between atoms: _263  and  _266
REMARK   97  A    between atoms: _266  and  _267
REMARK   98  A    between atoms: _273  and  _275
REMARK   99  A    between atoms: _275  and  _276
REMARK  100  A    between atoms: _275  and  _278
REMARK  101  A    between atoms: _278  and  _279
REMARK  102  A    between atoms: _279  and  _280
REMARK  103  A    between atoms: _280  and  _281
REMARK  104  A    between atoms: _290  and  _292
REMARK  105  A    between atoms: _292  and  _293
REMARK  106  A    between atoms: _292  and  _295
REMARK  107  A    between atoms: _295  and  _296
REMARK  108  A    between atoms: _301  and  _302
REMARK  109  A    between atoms: _304  and  _306
REMARK  110  A    between atoms: _306  and  _307
REMARK  111  A    between atoms: _306  and  _309
REMARK  112  A    between atoms: _309  and  _310
REMARK  113  A    between atoms: _313  and  _315
REMARK  114  A    between atoms: _315  and  _316
REMARK  115  A    between atoms: _315  and  _318
REMARK  116  A    between atoms: _318  and  _319
REMARK  117  A    between atoms: _329  and  _331
REMARK  118  A    between atoms: _331  and  _332
REMARK  119  A    between atoms: _331  and  _334
REMARK  120  A    between atoms: _334  and  _335
REMARK  121  A    between atoms: _340  and  _342
REMARK  122  A    between atoms: _342  and  _343
REMARK  123  A    between atoms: _342  and  _345
REMARK  124  A    between atoms: _345  and  _346
REMARK  125  A    between atoms: _350  and  ZN_449
REMARK  126  A    between atoms: _351  and  _353
REMARK  127  A    between atoms: _353  and  _354
REMARK  128  A    between atoms: _353  and  _356
REMARK  129  A    between atoms: _356  and  _357
REMARK  130  A    between atoms: _360  and  _362
REMARK  131  A    between atoms: _362  and  _363
REMARK  132  A    between atoms: _365  and  _367
REMARK  133  A    between atoms: _367  and  _368
REMARK  134  A    between atoms: _367  and  _370
REMARK  135  A    between atoms: _370  and  _371
REMARK  136  A    between atoms: _374  and  _376
REMARK  137  A    between atoms: _376  and  _377
REMARK  138  A    between atoms: _376  and  _379
REMARK  139  A    between atoms: _379  and  _380
REMARK  140  A    between atoms: _383  and  _385
REMARK  141  A    between atoms: _385  and  _386
REMARK  142  A    between atoms: _389  and  _391
REMARK  143  A    between atoms: _391  and  _392
REMARK  144  A    between atoms: _391  and  _394
REMARK  145  A    between atoms: _394  and  _395
REMARK  146  A    between atoms: _400  and  _401
REMARK  147  A    between atoms: _403  and  _405
REMARK  148  A    between atoms: _405  and  _406
REMARK  149  A    between atoms: _405  and  _408
REMARK  150  A    between atoms: _408  and  _409
REMARK  151  A    between atoms: _409  and  _410
REMARK  152  A    between atoms: _413  and  _415
REMARK  153  A    between atoms: _415  and  _416
REMARK  154  A    between atoms: _415  and  _418
REMARK  155  A    between atoms: _418  and  _419
REMARK  156  A    between atoms: _419  and  _420
REMARK  157  A    between atoms: _420  and  _421
REMARK  158  A    between atoms: _430  and  _432
REMARK  159  A    between atoms: _432  and  _433
REMARK  160  A    between atoms: _435  and  _437
REMARK  161  A    between atoms: _437  and  _438
REMARK  162  A    between atoms: _437  and  _440
REMARK  163  A    between atoms: _440  and  _441
REMARK  164  A    between atoms: _444  and  _446
REMARK  165  A    between atoms: _446  and  _447
REMARK                            x       y       z     vdW  Elec       q    Type
REMARK                         _______ _______ _______ _____ _____    ______ ____
ROOT
ATOM      1  O   HOH     1      30.663  69.690  19.924  0.00  0.00    +0.000 OA
ENDROOT
TORSDOF 0
REMARK  Name = ../refined-set-2016/3ddg/3ddg_pocket.pdb
REMARK  165 active torsions:
REMARK  status: ('A' for Active; 'I' for Inactive)
REMARK    1  A    between atoms: _1  and  _3
REMARK    2  A    between atoms: _3  and  _4
REMARK    3  A    between atoms: _3  and  _6
REMARK    4  A    between atoms: _6  and  _7
REMARK    5  A    between atoms: _12  and  _14
REMARK    6  A    between atoms: _25  and  _28
REMARK    7  A    between atoms: _28  and  _29
REMARK    8  A    between atoms: _36  and  _37
REMARK    9  A    between atoms: _44  and  _45
REMARK   10  A    between atoms: _50  and  _52
REMARK   11  A    between atoms: _52  and  _53
REMARK   12  A    between atoms: _55  and  _57
REMARK   13  A    between atoms: _57  and  _58
REMARK   14  A    between atoms: _57  and  _60
REMARK   15  A    between atoms: _60  and  _61
REMARK   16  A    between atoms: _71  and  _73
REMARK   17  A    between atoms: _73  and  _74
REMARK   18  A    between atoms: _73  and  _76
REMARK   19  A    between atoms: _76  and  _77
REMARK   20  A    between atoms: _80  and  _82
REMARK   21  A    between atoms: _82  and  _83
REMARK   22  A    between atoms: _82  and  _85
REMARK   23  A    between atoms: _85  and  _86
REMARK   24  A    between atoms: _91  and  _92
REMARK   25  A    between atoms: _94  and  _96
REMARK   26  A    between atoms: _96  and  _97
REMARK   27  A    between atoms: _96  and  _99
REMARK   28  A    between atoms: _99  and  _100
REMARK   29  A    between atoms: _100  and  _101
REMARK   30  A    between atoms: _104  and  _106
REMARK   31  A    between atoms: _106  and  _107
REMARK   32  A    between atoms: _106  and  _109
REMARK   33  A    between atoms: _109  and  _110
REMARK   34  A    between atoms: _110  and  _111
REMARK   35  A    between atoms: _113  and  _115
REMARK   36  A    between atoms: _115  and  _116
REMARK   37  A    between atoms: _115  and  _118
REMARK   38  A    between atoms: _118  and  _119
REMARK   39  A    between atoms: _122  and  _124
REMARK   40  A    between atoms: _124  and  _125
REMARK   41  A    between atoms: _124  and  _127
REMARK   42  A    between atoms: _127  and  _128
REMARK   43  A    between atoms: _128  and  _130
REMARK   44  A    between atoms: _130  and  ZN_449
REMARK   45  A    between atoms: _132  and  _133
REMARK   46  A    between atoms: _138  and  _140
REMARK   47  A    between atoms: _140  and  _141
REMARK   48  A    between atoms: _140  and  _143
REMARK   49  A    between atoms: _143  and  _144
REMARK   50  A    between atoms: _150  and  _152
REMARK   51  A    between atoms: _152  and  _153
REMARK   52  A    between atoms: _152  and  _155
REMARK   53  A    between atoms: _155  and  _156
REMARK   54  A    between atoms: _156  and  _157
REMARK   55  A    between atoms: _157  and  _158
REMARK   56  A    between atoms: _167  and  _169
REMARK   57  A    between atoms: _169  and  _170
REMARK   58  A    between atoms: _169  and  _172
REMARK   59  A    between atoms: _172  and  _173
REMARK   60  A    between atoms: _178  and  _179
REMARK   61  A    between atoms: _181  and  _183
REMARK   62  A    between atoms: _183  and  _184
REMARK   63  A    between atoms: _183  and  _186
REMARK   64  A    between atoms: _186  and  _187
REMARK   65  A    between atoms: _189  and  _191
REMARK   66  A    between atoms: _191  and  _192
REMARK   67  A    between atoms: _191  and  _194
REMARK   68  A    between atoms: _194  and  _195
REMARK   69  A    between atoms: _200  and  _201
REMARK   70  A    between atoms: _203  and  _205
REMARK   71  A    between atoms: _205  and  _206
REMARK   72  A    between atoms: _205  and  _208
REMARK   73  A    between atoms: _208  and  _209
REMARK   74  A    between atoms: _212  and  _214
REMARK   75  A    between atoms: _214  and  _215
REMARK   76  A    between atoms: _214  and  _217
REMARK   77  A    between atoms: _217  and  _218
REMARK   78  A    between atoms: _221  and  _223
REMARK   79  A    between atoms: _223  and  _224
REMARK   80  A    between atoms: _223  and  _226
REMARK   81  A    between atoms: _226  and  _227
REMARK   82  A    between atoms: _227  and  _228
REMARK   83  A    between atoms: _228  and  _229
REMARK   84  A    between atoms: _238  and  _240
REMARK   85  A    between atoms: _240  and  _241
REMARK   86  A    between atoms: _243  and  _245
REMARK   87  A    between atoms: _245  and  _246
REMARK   88  A    between atoms: _245  and  _248
REMARK   89  A    between atoms: _248  and  _249
REMARK   90  A    between atoms: _252  and  _254
REMARK   91  A    between atoms: _254  and  _255
REMARK   92  A    between atoms: _254  and  _257
REMARK   93  A    between atoms: _257  and  _258
REMARK   94  A    between atoms: _261  and  _263
REMARK   95  A    between atoms: _263  and  _264
REMARK   96  A    between atoms: _263  and  _266
REMARK   97  A    between atoms: _266  and  _267
REMARK   98  A    between atoms: _273  and  _275
REMARK   99  A    between atoms: _275  and  _276
REMARK  100  A    between atoms: _275  and  _278
REMARK  101  A    between atoms: _278  and  _279
REMARK  102  A    between atoms: _279  and  _280
REMARK  103  A    between atoms: _280  and  _281
REMARK  104  A    between atoms: _290  and  _292
REMARK  105  A    between atoms: _292  and  _293
REMARK  106  A    between atoms: _292  and  _295
REMARK  107  A    between atoms: _295  and  _296
REMARK  108  A    between atoms: _301  and  _302
REMARK  109  A    between atoms: _304  and  _306
REMARK  110  A    between atoms: _306  and  _307
REMARK  111  A    between atoms: _306  and  _309
REMARK  112  A    between atoms: _309  and  _310
REMARK  113  A    between atoms: _313  and  _315
REMARK  114  A    between atoms: _315  and  _316
REMARK  115  A    between atoms: _315  and  _318
REMARK  116  A    between atoms: _318  and  _319
REMARK  117  A    between atoms: _329  and  _331
REMARK  118  A    between atoms: _331  and  _332
REMARK  119  A    between atoms: _331  and  _334
REMARK  120  A    between atoms: _334  and  _335
REMARK  121  A    between atoms: _340  and  _342
REMARK  122  A    between atoms: _342  and  _343
REMARK  123  A    between atoms: _342  and  _345
REMARK  124  A    between atoms: _345  and  _346
REMARK  125  A    between atoms: _350  and  ZN_449
REMARK  126  A    between atoms: _351  and  _353
REMARK  127  A    between atoms: _353  and  _354
REMARK  128  A    between atoms: _353  and  _356
REMARK  129  A    between atoms: _356  and  _357
REMARK  130  A    between atoms: _360  and  _362
REMARK  131  A    between atoms: _362  and  _363
REMARK  132  A    between atoms: _365  and  _367
REMARK  133  A    between atoms: _367  and  _368
REMARK  134  A    between atoms: _367  and  _370
REMARK  135  A    between atoms: _370  and  _371
REMARK  136  A    between atoms: _374  and  _376
REMARK  137  A    between atoms: _376  and  _377
REMARK  138  A    between atoms: _376  and  _379
REMARK  139  A    between atoms: _379  and  _380
REMARK  140  A    between atoms: _383  and  _385
REMARK  141  A    between atoms: _385  and  _386
REMARK  142  A    between atoms: _389  and  _391
REMARK  143  A    between atoms: _391  and  _392
REMARK  144  A    between atoms: _391  and  _394
REMARK  145  A    between atoms: _394  and  _395
REMARK  146  A    between atoms: _400  and  _401
REMARK  147  A    between atoms: _403  and  _405
REMARK  148  A    between atoms: _405  and  _406
REMARK  149  A    between atoms: _405  and  _408
REMARK  150  A    between atoms: _408  and  _409
REMARK  151  A    between atoms: _409  and  _410
REMARK  152  A    between atoms: _413  and  _415
REMARK  153  A    between atoms: _415  and  _416
REMARK  154  A    between atoms: _415  and  _418
REMARK  155  A    between atoms: _418  and  _419
REMARK  156  A    between atoms: _419  and  _420
REMARK  157  A    between atoms: _420  and  _421
REMARK  158  A    between atoms: _430  and  _432
REMARK  159  A    between atoms: _432  and  _433
REMARK  160  A    between atoms: _435  and  _437
REMARK  161  A    between atoms: _437  and  _438
REMARK  162  A    between atoms: _437  and  _440
REMARK  163  A    between atoms: _440  and  _441
REMARK  164  A    between atoms: _444  and  _446
REMARK  165  A    between atoms: _446  and  _447
REMARK                            x       y       z     vdW  Elec       q    Type
REMARK                         _______ _______ _______ _____ _____    ______ ____
ROOT
ATOM      1  O   HOH     1      28.275  69.836  18.985  0.00  0.00    +0.000 OA
ENDROOT
TORSDOF 0
REMARK  Name = ../refined-set-2016/3ddg/3ddg_pocket.pdb
REMARK  165 active torsions:
REMARK  status: ('A' for Active; 'I' for Inactive)
REMARK    1  A    between atoms: _1  and  _3
REMARK    2  A    between atoms: _3  and  _4
REMARK    3  A    between atoms: _3  and  _6
REMARK    4  A    between atoms: _6  and  _7
REMARK    5  A    between atoms: _12  and  _14
REMARK    6  A    between atoms: _25  and  _28
REMARK    7  A    between atoms: _28  and  _29
REMARK    8  A    between atoms: _36  and  _37
REMARK    9  A    between atoms: _44  and  _45
REMARK   10  A    between atoms: _50  and  _52
REMARK   11  A    between atoms: _52  and  _53
REMARK   12  A    between atoms: _55  and  _57
REMARK   13  A    between atoms: _57  and  _58
REMARK   14  A    between atoms: _57  and  _60
REMARK   15  A    between atoms: _60  and  _61
REMARK   16  A    between atoms: _71  and  _73
REMARK   17  A    between atoms: _73  and  _74
REMARK   18  A    between atoms: _73  and  _76
REMARK   19  A    between atoms: _76  and  _77
REMARK   20  A    between atoms: _80  and  _82
REMARK   21  A    between atoms: _82  and  _83
REMARK   22  A    between atoms: _82  and  _85
REMARK   23  A    between atoms: _85  and  _86
REMARK   24  A    between atoms: _91  and  _92
REMARK   25  A    between atoms: _94  and  _96
REMARK   26  A    between atoms: _96  and  _97
REMARK   27  A    between atoms: _96  and  _99
REMARK   28  A    between atoms: _99  and  _100
REMARK   29  A    between atoms: _100  and  _101
REMARK   30  A    between atoms: _104  and  _106
REMARK   31  A    between atoms: _106  and  _107
REMARK   32  A    between atoms: _106  and  _109
REMARK   33  A    between atoms: _109  and  _110
REMARK   34  A    between atoms: _110  and  _111
REMARK   35  A    between atoms: _113  and  _115
REMARK   36  A    between atoms: _115  and  _116
REMARK   37  A    between atoms: _115  and  _118
REMARK   38  A    between atoms: _118  and  _119
REMARK   39  A    between atoms: _122  and  _124
REMARK   40  A    between atoms: _124  and  _125
REMARK   41  A    between atoms: _124  and  _127
REMARK   42  A    between atoms: _127  and  _128
REMARK   43  A    between atoms: _128  and  _130
REMARK   44  A    between atoms: _130  and  ZN_449
REMARK   45  A    between atoms: _132  and  _133
REMARK   46  A    between atoms: _138  and  _140
REMARK   47  A    between atoms: _140  and  _141
REMARK   48  A    between atoms: _140  and  _143
REMARK   49  A    between atoms: _143  and  _144
REMARK   50  A    between atoms: _150  and  _152
REMARK   51  A    between atoms: _152  and  _153
REMARK   52  A    between atoms: _152  and  _155
REMARK   53  A    between atoms: _155  and  _156
REMARK   54  A    between atoms: _156  and  _157
REMARK   55  A    between atoms: _157  and  _158
REMARK   56  A    between atoms: _167  and  _169
REMARK   57  A    between atoms: _169  and  _170
REMARK   58  A    between atoms: _169  and  _172
REMARK   59  A    between atoms: _172  and  _173
REMARK   60  A    between atoms: _178  and  _179
REMARK   61  A    between atoms: _181  and  _183
REMARK   62  A    between atoms: _183  and  _184
REMARK   63  A    between atoms: _183  and  _186
REMARK   64  A    between atoms: _186  and  _187
REMARK   65  A    between atoms: _189  and  _191
REMARK   66  A    between atoms: _191  and  _192
REMARK   67  A    between atoms: _191  and  _194
REMARK   68  A    between atoms: _194  and  _195
REMARK   69  A    between atoms: _200  and  _201
REMARK   70  A    between atoms: _203  and  _205
REMARK   71  A    between atoms: _205  and  _206
REMARK   72  A    between atoms: _205  and  _208
REMARK   73  A    between atoms: _208  and  _209
REMARK   74  A    between atoms: _212  and  _214
REMARK   75  A    between atoms: _214  and  _215
REMARK   76  A    between atoms: _214  and  _217
REMARK   77  A    between atoms: _217  and  _218
REMARK   78  A    between atoms: _221  and  _223
REMARK   79  A    between atoms: _223  and  _224
REMARK   80  A    between atoms: _223  and  _226
REMARK   81  A    between atoms: _226  and  _227
REMARK   82  A    between atoms: _227  and  _228
REMARK   83  A    between atoms: _228  and  _229
REMARK   84  A    between atoms: _238  and  _240
REMARK   85  A    between atoms: _240  and  _241
REMARK   86  A    between atoms: _243  and  _245
REMARK   87  A    between atoms: _245  and  _246
REMARK   88  A    between atoms: _245  and  _248
REMARK   89  A    between atoms: _248  and  _249
REMARK   90  A    between atoms: _252  and  _254
REMARK   91  A    between atoms: _254  and  _255
REMARK   92  A    between atoms: _254  and  _257
REMARK   93  A    between atoms: _257  and  _258
REMARK   94  A    between atoms: _261  and  _263
REMARK   95  A    between atoms: _263  and  _264
REMARK   96  A    between atoms: _263  and  _266
REMARK   97  A    between atoms: _266  and  _267
REMARK   98  A    between atoms: _273  and  _275
REMARK   99  A    between atoms: _275  and  _276
REMARK  100  A    between atoms: _275  and  _278
REMARK  101  A    between atoms: _278  and  _279
REMARK  102  A    between atoms: _279  and  _280
REMARK  103  A    between atoms: _280  and  _281
REMARK  104  A    between atoms: _290  and  _292
REMARK  105  A    between atoms: _292  and  _293
REMARK  106  A    between atoms: _292  and  _295
REMARK  107  A    between atoms: _295  and  _296
REMARK  108  A    between atoms: _301  and  _302
REMARK  109  A    between atoms: _304  and  _306
REMARK  110  A    between atoms: _306  and  _307
REMARK  111  A    between atoms: _306  and  _309
REMARK  112  A    between atoms: _309  and  _310
REMARK  113  A    between atoms: _313  and  _315
REMARK  114  A    between atoms: _315  and  _316
REMARK  115  A    between atoms: _315  and  _318
REMARK  116  A    between atoms: _318  and  _319
REMARK  117  A    between atoms: _329  and  _331
REMARK  118  A    between atoms: _331  and  _332
REMARK  119  A    between atoms: _331  and  _334
REMARK  120  A    between atoms: _334  and  _335
REMARK  121  A    between atoms: _340  and  _342
REMARK  122  A    between atoms: _342  and  _343
REMARK  123  A    between atoms: _342  and  _345
REMARK  124  A    between atoms: _345  and  _346
REMARK  125  A    between atoms: _350  and  ZN_449
REMARK  126  A    between atoms: _351  and  _353
REMARK  127  A    between atoms: _353  and  _354
REMARK  128  A    between atoms: _353  and  _356
REMARK  129  A    between atoms: _356  and  _357
REMARK  130  A    between atoms: _360  and  _362
REMARK  131  A    between atoms: _362  and  _363
REMARK  132  A    between atoms: _365  and  _367
REMARK  133  A    between atoms: _367  and  _368
REMARK  134  A    between atoms: _367  and  _370
REMARK  135  A    between atoms: _370  and  _371
REMARK  136  A    between atoms: _374  and  _376
REMARK  137  A    between atoms: _376  and  _377
REMARK  138  A    between atoms: _376  and  _379
REMARK  139  A    between atoms: _379  and  _380
REMARK  140  A    between atoms: _383  and  _385
REMARK  141  A    between atoms: _385  and  _386
REMARK  142  A    between atoms: _389  and  _391
REMARK  143  A    between atoms: _391  and  _392
REMARK  144  A    between atoms: _391  and  _394
REMARK  145  A    between atoms: _394  and  _395
REMARK  146  A    between atoms: _400  and  _401
REMARK  147  A    between atoms: _403  and  _405
REMARK  148  A    between atoms: _405  and  _406
REMARK  149  A    between atoms: _405  and  _408
REMARK  150  A    between atoms: _408  and  _409
REMARK  151  A    between atoms: _409  and  _410
REMARK  152  A    between atoms: _413  and  _415
REMARK  153  A    between atoms: _415  and  _416
REMARK  154  A    between atoms: _415  and  _418
REMARK  155  A    between atoms: _418  and  _419
REMARK  156  A    between atoms: _419  and  _420
REMARK  157  A    between atoms: _420  and  _421
REMARK  158  A    between atoms: _430  and  _432
REMARK  159  A    between atoms: _432  and  _433
REMARK  160  A    between atoms: _435  and  _437
REMARK  161  A    between atoms: _437  and  _438
REMARK  162  A    between atoms: _437  and  _440
REMARK  163  A    between atoms: _440  and  _441
REMARK  164  A    between atoms: _444  and  _446
REMARK  165  A    between atoms: _446  and  _447
REMARK                            x       y       z     vdW  Elec       q    Type
REMARK                         _______ _______ _______ _____ _____    ______ ____
ROOT
ATOM      1  O   HOH     1      26.694  67.168  19.855  0.00  0.00    +0.000 OA
ENDROOT
TORSDOF 0
REMARK  Name = ../refined-set-2016/3ddg/3ddg_pocket.pdb
REMARK  165 active torsions:
REMARK  status: ('A' for Active; 'I' for Inactive)
REMARK    1  A    between atoms: _1  and  _3
REMARK    2  A    between atoms: _3  and  _4
REMARK    3  A    between atoms: _3  and  _6
REMARK    4  A    between atoms: _6  and  _7
REMARK    5  A    between atoms: _12  and  _14
REMARK    6  A    between atoms: _25  and  _28
REMARK    7  A    between atoms: _28  and  _29
REMARK    8  A    between atoms: _36  and  _37
REMARK    9  A    between atoms: _44  and  _45
REMARK   10  A    between atoms: _50  and  _52
REMARK   11  A    between atoms: _52  and  _53
REMARK   12  A    between atoms: _55  and  _57
REMARK   13  A    between atoms: _57  and  _58
REMARK   14  A    between atoms: _57  and  _60
REMARK   15  A    between atoms: _60  and  _61
REMARK   16  A    between atoms: _71  and  _73
REMARK   17  A    between atoms: _73  and  _74
REMARK   18  A    between atoms: _73  and  _76
REMARK   19  A    between atoms: _76  and  _77
REMARK   20  A    between atoms: _80  and  _82
REMARK   21  A    between atoms: _82  and  _83
REMARK   22  A    between atoms: _82  and  _85
REMARK   23  A    between atoms: _85  and  _86
REMARK   24  A    between atoms: _91  and  _92
REMARK   25  A    between atoms: _94  and  _96
REMARK   26  A    between atoms: _96  and  _97
REMARK   27  A    between atoms: _96  and  _99
REMARK   28  A    between atoms: _99  and  _100
REMARK   29  A    between atoms: _100  and  _101
REMARK   30  A    between atoms: _104  and  _106
REMARK   31  A    between atoms: _106  and  _107
REMARK   32  A    between atoms: _106  and  _109
REMARK   33  A    between atoms: _109  and  _110
REMARK   34  A    between atoms: _110  and  _111
REMARK   35  A    between atoms: _113  and  _115
REMARK   36  A    between atoms: _115  and  _116
REMARK   37  A    between atoms: _115  and  _118
REMARK   38  A    between atoms: _118  and  _119
REMARK   39  A    between atoms: _122  and  _124
REMARK   40  A    between atoms: _124  and  _125
REMARK   41  A    between atoms: _124  and  _127
REMARK   42  A    between atoms: _127  and  _128
REMARK   43  A    between atoms: _128  and  _130
REMARK   44  A    between atoms: _130  and  ZN_449
REMARK   45  A    between atoms: _132  and  _133
REMARK   46  A    between atoms: _138  and  _140
REMARK   47  A    between atoms: _140  and  _141
REMARK   48  A    between atoms: _140  and  _143
REMARK   49  A    between atoms: _143  and  _144
REMARK   50  A    between atoms: _150  and  _152
REMARK   51  A    between atoms: _152  and  _153
REMARK   52  A    between atoms: _152  and  _155
REMARK   53  A    between atoms: _155  and  _156
REMARK   54  A    between atoms: _156  and  _157
REMARK   55  A    between atoms: _157  and  _158
REMARK   56  A    between atoms: _167  and  _169
REMARK   57  A    between atoms: _169  and  _170
REMARK   58  A    between atoms: _169  and  _172
REMARK   59  A    between atoms: _172  and  _173
REMARK   60  A    between atoms: _178  and  _179
REMARK   61  A    between atoms: _181  and  _183
REMARK   62  A    between atoms: _183  and  _184
REMARK   63  A    between atoms: _183  and  _186
REMARK   64  A    between atoms: _186  and  _187
REMARK   65  A    between atoms: _189  and  _191
REMARK   66  A    between atoms: _191  and  _192
REMARK   67  A    between atoms: _191  and  _194
REMARK   68  A    between atoms: _194  and  _195
REMARK   69  A    between atoms: _200  and  _201
REMARK   70  A    between atoms: _203  and  _205
REMARK   71  A    between atoms: _205  and  _206
REMARK   72  A    between atoms: _205  and  _208
REMARK   73  A    between atoms: _208  and  _209
REMARK   74  A    between atoms: _212  and  _214
REMARK   75  A    between atoms: _214  and  _215
REMARK   76  A    between atoms: _214  and  _217
REMARK   77  A    between atoms: _217  and  _218
REMARK   78  A    between atoms: _221  and  _223
REMARK   79  A    between atoms: _223  and  _224
REMARK   80  A    between atoms: _223  and  _226
REMARK   81  A    between atoms: _226  and  _227
REMARK   82  A    between atoms: _227  and  _228
REMARK   83  A    between atoms: _228  and  _229
REMARK   84  A    between atoms: _238  and  _240
REMARK   85  A    between atoms: _240  and  _241
REMARK   86  A    between atoms: _243  and  _245
REMARK   87  A    between atoms: _245  and  _246
REMARK   88  A    between atoms: _245  and  _248
REMARK   89  A    between atoms: _248  and  _249
REMARK   90  A    between atoms: _252  and  _254
REMARK   91  A    between atoms: _254  and  _255
REMARK   92  A    between atoms: _254  and  _257
REMARK   93  A    between atoms: _257  and  _258
REMARK   94  A    between atoms: _261  and  _263
REMARK   95  A    between atoms: _263  and  _264
REMARK   96  A    between atoms: _263  and  _266
REMARK   97  A    between atoms: _266  and  _267
REMARK   98  A    between atoms: _273  and  _275
REMARK   99  A    between atoms: _275  and  _276
REMARK  100  A    between atoms: _275  and  _278
REMARK  101  A    between atoms: _278  and  _279
REMARK  102  A    between atoms: _279  and  _280
REMARK  103  A    between atoms: _280  and  _281
REMARK  104  A    between atoms: _290  and  _292
REMARK  105  A    between atoms: _292  and  _293
REMARK  106  A    between atoms: _292  and  _295
REMARK  107  A    between atoms: _295  and  _296
REMARK  108  A    between atoms: _301  and  _302
REMARK  109  A    between atoms: _304  and  _306
REMARK  110  A    between atoms: _306  and  _307
REMARK  111  A    between atoms: _306  and  _309
REMARK  112  A    between atoms: _309  and  _310
REMARK  113  A    between atoms: _313  and  _315
REMARK  114  A    between atoms: _315  and  _316
REMARK  115  A    between atoms: _315  and  _318
REMARK  116  A    between atoms: _318  and  _319
REMARK  117  A    between atoms: _329  and  _331
REMARK  118  A    between atoms: _331  and  _332
REMARK  119  A    between atoms: _331  and  _334
REMARK  120  A    between atoms: _334  and  _335
REMARK  121  A    between atoms: _340  and  _342
REMARK  122  A    between atoms: _342  and  _343
REMARK  123  A    between atoms: _342  and  _345
REMARK  124  A    between atoms: _345  and  _346
REMARK  125  A    between atoms: _350  and  ZN_449
REMARK  126  A    between atoms: _351  and  _353
REMARK  127  A    between atoms: _353  and  _354
REMARK  128  A    between atoms: _353  and  _356
REMARK  129  A    between atoms: _356  and  _357
REMARK  130  A    between atoms: _360  and  _362
REMARK  131  A    between atoms: _362  and  _363
REMARK  132  A    between atoms: _365  and  _367
REMARK  133  A    between atoms: _367  and  _368
REMARK  134  A    between atoms: _367  and  _370
REMARK  135  A    between atoms: _370  and  _371
REMARK  136  A    between atoms: _374  and  _376
REMARK  137  A    between atoms: _376  and  _377
REMARK  138  A    between atoms: _376  and  _379
REMARK  139  A    between atoms: _379  and  _380
REMARK  140  A    between atoms: _383  and  _385
REMARK  141  A    between atoms: _385  and  _386
REMARK  142  A    between atoms: _389  and  _391
REMARK  143  A    between atoms: _391  and  _392
REMARK  144  A    between atoms: _391  and  _394
REMARK  145  A    between atoms: _394  and  _395
REMARK  146  A    between atoms: _400  and  _401
REMARK  147  A    between atoms: _403  and  _405
REMARK  148  A    between atoms: _405  and  _406
REMARK  149  A    between atoms: _405  and  _408
REMARK  150  A    between atoms: _408  and  _409
REMARK  151  A    between atoms: _409  and  _410
REMARK  152  A    between atoms: _413  and  _415
REMARK  153  A    between atoms: _415  and  _416
REMARK  154  A    between atoms: _415  and  _418
REMARK  155  A    between atoms: _418  and  _419
REMARK  156  A    between atoms: _419  and  _420
REMARK  157  A    between atoms: _420  and  _421
REMARK  158  A    between atoms: _430  and  _432
REMARK  159  A    between atoms: _432  and  _433
REMARK  160  A    between atoms: _435  and  _437
REMARK  161  A    between atoms: _437  and  _438
REMARK  162  A    between atoms: _437  and  _440
REMARK  163  A    between atoms: _440  and  _441
REMARK  164  A    between atoms: _444  and  _446
REMARK  165  A    between atoms: _446  and  _447
REMARK                            x       y       z     vdW  Elec       q    Type
REMARK                         _______ _______ _______ _____ _____    ______ ____
ROOT
ATOM      1  O   HOH     1      25.993  66.247  17.726  0.00  0.00    +0.000 OA
ENDROOT
TORSDOF 0
REMARK  Name = ../refined-set-2016/3ddg/3ddg_pocket.pdb
REMARK  165 active torsions:
REMARK  status: ('A' for Active; 'I' for Inactive)
REMARK    1  A    between atoms: _1  and  _3
REMARK    2  A    between atoms: _3  and  _4
REMARK    3  A    between atoms: _3  and  _6
REMARK    4  A    between atoms: _6  and  _7
REMARK    5  A    between atoms: _12  and  _14
REMARK    6  A    between atoms: _25  and  _28
REMARK    7  A    between atoms: _28  and  _29
REMARK    8  A    between atoms: _36  and  _37
REMARK    9  A    between atoms: _44  and  _45
REMARK   10  A    between atoms: _50  and  _52
REMARK   11  A    between atoms: _52  and  _53
REMARK   12  A    between atoms: _55  and  _57
REMARK   13  A    between atoms: _57  and  _58
REMARK   14  A    between atoms: _57  and  _60
REMARK   15  A    between atoms: _60  and  _61
REMARK   16  A    between atoms: _71  and  _73
REMARK   17  A    between atoms: _73  and  _74
REMARK   18  A    between atoms: _73  and  _76
REMARK   19  A    between atoms: _76  and  _77
REMARK   20  A    between atoms: _80  and  _82
REMARK   21  A    between atoms: _82  and  _83
REMARK   22  A    between atoms: _82  and  _85
REMARK   23  A    between atoms: _85  and  _86
REMARK   24  A    between atoms: _91  and  _92
REMARK   25  A    between atoms: _94  and  _96
REMARK   26  A    between atoms: _96  and  _97
REMARK   27  A    between atoms: _96  and  _99
REMARK   28  A    between atoms: _99  and  _100
REMARK   29  A    between atoms: _100  and  _101
REMARK   30  A    between atoms: _104  and  _106
REMARK   31  A    between atoms: _106  and  _107
REMARK   32  A    between atoms: _106  and  _109
REMARK   33  A    between atoms: _109  and  _110
REMARK   34  A    between atoms: _110  and  _111
REMARK   35  A    between atoms: _113  and  _115
REMARK   36  A    between atoms: _115  and  _116
REMARK   37  A    between atoms: _115  and  _118
REMARK   38  A    between atoms: _118  and  _119
REMARK   39  A    between atoms: _122  and  _124
REMARK   40  A    between atoms: _124  and  _125
REMARK   41  A    between atoms: _124  and  _127
REMARK   42  A    between atoms: _127  and  _128
REMARK   43  A    between atoms: _128  and  _130
REMARK   44  A    between atoms: _130  and  ZN_449
REMARK   45  A    between atoms: _132  and  _133
REMARK   46  A    between atoms: _138  and  _140
REMARK   47  A    between atoms: _140  and  _141
REMARK   48  A    between atoms: _140  and  _143
REMARK   49  A    between atoms: _143  and  _144
REMARK   50  A    between atoms: _150  and  _152
REMARK   51  A    between atoms: _152  and  _153
REMARK   52  A    between atoms: _152  and  _155
REMARK   53  A    between atoms: _155  and  _156
REMARK   54  A    between atoms: _156  and  _157
REMARK   55  A    between atoms: _157  and  _158
REMARK   56  A    between atoms: _167  and  _169
REMARK   57  A    between atoms: _169  and  _170
REMARK   58  A    between atoms: _169  and  _172
REMARK   59  A    between atoms: _172  and  _173
REMARK   60  A    between atoms: _178  and  _179
REMARK   61  A    between atoms: _181  and  _183
REMARK   62  A    between atoms: _183  and  _184
REMARK   63  A    between atoms: _183  and  _186
REMARK   64  A    between atoms: _186  and  _187
REMARK   65  A    between atoms: _189  and  _191
REMARK   66  A    between atoms: _191  and  _192
REMARK   67  A    between atoms: _191  and  _194
REMARK   68  A    between atoms: _194  and  _195
REMARK   69  A    between atoms: _200  and  _201
REMARK   70  A    between atoms: _203  and  _205
REMARK   71  A    between atoms: _205  and  _206
REMARK   72  A    between atoms: _205  and  _208
REMARK   73  A    between atoms: _208  and  _209
REMARK   74  A    between atoms: _212  and  _214
REMARK   75  A    between atoms: _214  and  _215
REMARK   76  A    between atoms: _214  and  _217
REMARK   77  A    between atoms: _217  and  _218
REMARK   78  A    between atoms: _221  and  _223
REMARK   79  A    between atoms: _223  and  _224
REMARK   80  A    between atoms: _223  and  _226
REMARK   81  A    between atoms: _226  and  _227
REMARK   82  A    between atoms: _227  and  _228
REMARK   83  A    between atoms: _228  and  _229
REMARK   84  A    between atoms: _238  and  _240
REMARK   85  A    between atoms: _240  and  _241
REMARK   86  A    between atoms: _243  and  _245
REMARK   87  A    between atoms: _245  and  _246
REMARK   88  A    between atoms: _245  and  _248
REMARK   89  A    between atoms: _248  and  _249
REMARK   90  A    between atoms: _252  and  _254
REMARK   91  A    between atoms: _254  and  _255
REMARK   92  A    between atoms: _254  and  _257
REMARK   93  A    between atoms: _257  and  _258
REMARK   94  A    between atoms: _261  and  _263
REMARK   95  A    between atoms: _263  and  _264
REMARK   96  A    between atoms: _263  and  _266
REMARK   97  A    between atoms: _266  and  _267
REMARK   98  A    between atoms: _273  and  _275
REMARK   99  A    between atoms: _275  and  _276
REMARK  100  A    between atoms: _275  and  _278
REMARK  101  A    between atoms: _278  and  _279
REMARK  102  A    between atoms: _279  and  _280
REMARK  103  A    between atoms: _280  and  _281
REMARK  104  A    between atoms: _290  and  _292
REMARK  105  A    between atoms: _292  and  _293
REMARK  106  A    between atoms: _292  and  _295
REMARK  107  A    between atoms: _295  and  _296
REMARK  108  A    between atoms: _301  and  _302
REMARK  109  A    between atoms: _304  and  _306
REMARK  110  A    between atoms: _306  and  _307
REMARK  111  A    between atoms: _306  and  _309
REMARK  112  A    between atoms: _309  and  _310
REMARK  113  A    between atoms: _313  and  _315
REMARK  114  A    between atoms: _315  and  _316
REMARK  115  A    between atoms: _315  and  _318
REMARK  116  A    between atoms: _318  and  _319
REMARK  117  A    between atoms: _329  and  _331
REMARK  118  A    between atoms: _331  and  _332
REMARK  119  A    between atoms: _331  and  _334
REMARK  120  A    between atoms: _334  and  _335
REMARK  121  A    between atoms: _340  and  _342
REMARK  122  A    between atoms: _342  and  _343
REMARK  123  A    between atoms: _342  and  _345
REMARK  124  A    between atoms: _345  and  _346
REMARK  125  A    between atoms: _350  and  ZN_449
REMARK  126  A    between atoms: _351  and  _353
REMARK  127  A    between atoms: _353  and  _354
REMARK  128  A    between atoms: _353  and  _356
REMARK  129  A    between atoms: _356  and  _357
REMARK  130  A    between atoms: _360  and  _362
REMARK  131  A    between atoms: _362  and  _363
REMARK  132  A    between atoms: _365  and  _367
REMARK  133  A    between atoms: _367  and  _368
REMARK  134  A    between atoms: _367  and  _370
REMARK  135  A    between atoms: _370  and  _371
REMARK  136  A    between atoms: _374  and  _376
REMARK  137  A    between atoms: _376  and  _377
REMARK  138  A    between atoms: _376  and  _379
REMARK  139  A    between atoms: _379  and  _380
REMARK  140  A    between atoms: _383  and  _385
REMARK  141  A    between atoms: _385  and  _386
REMARK  142  A    between atoms: _389  and  _391
REMARK  143  A    between atoms: _391  and  _392
REMARK  144  A    between atoms: _391  and  _394
REMARK  145  A    between atoms: _394  and  _395
REMARK  146  A    between atoms: _400  and  _401
REMARK  147  A    between atoms: _403  and  _405
REMARK  148  A    between atoms: _405  and  _406
REMARK  149  A    between atoms: _405  and  _408
REMARK  150  A    between atoms: _408  and  _409
REMARK  151  A    between atoms: _409  and  _410
REMARK  152  A    between atoms: _413  and  _415
REMARK  153  A    between atoms: _415  and  _416
REMARK  154  A    between atoms: _415  and  _418
REMARK  155  A    between atoms: _418  and  _419
REMARK  156  A    between atoms: _419  and  _420
REMARK  157  A    between atoms: _420  and  _421
REMARK  158  A    between atoms: _430  and  _432
REMARK  159  A    between atoms: _432  and  _433
REMARK  160  A    between atoms: _435  and  _437
REMARK  161  A    between atoms: _437  and  _438
REMARK  162  A    between atoms: _437  and  _440
REMARK  163  A    between atoms: _440  and  _441
REMARK  164  A    between atoms: _444  and  _446
REMARK  165  A    between atoms: _446  and  _447
REMARK                            x       y       z     vdW  Elec       q    Type
REMARK                         _______ _______ _______ _____ _____    ______ ____
ROOT
ATOM      1  O   HOH     1      26.685  63.929  16.399  0.00  0.00    +0.000 OA
ENDROOT
TORSDOF 0
REMARK  Name = ../refined-set-2016/3ddg/3ddg_pocket.pdb
REMARK  165 active torsions:
REMARK  status: ('A' for Active; 'I' for Inactive)
REMARK    1  A    between atoms: _1  and  _3
REMARK    2  A    between atoms: _3  and  _4
REMARK    3  A    between atoms: _3  and  _6
REMARK    4  A    between atoms: _6  and  _7
REMARK    5  A    between atoms: _12  and  _14
REMARK    6  A    between atoms: _25  and  _28
REMARK    7  A    between atoms: _28  and  _29
REMARK    8  A    between atoms: _36  and  _37
REMARK    9  A    between atoms: _44  and  _45
REMARK   10  A    between atoms: _50  and  _52
REMARK   11  A    between atoms: _52  and  _53
REMARK   12  A    between atoms: _55  and  _57
REMARK   13  A    between atoms: _57  and  _58
REMARK   14  A    between atoms: _57  and  _60
REMARK   15  A    between atoms: _60  and  _61
REMARK   16  A    between atoms: _71  and  _73
REMARK   17  A    between atoms: _73  and  _74
REMARK   18  A    between atoms: _73  and  _76
REMARK   19  A    between atoms: _76  and  _77
REMARK   20  A    between atoms: _80  and  _82
REMARK   21  A    between atoms: _82  and  _83
REMARK   22  A    between atoms: _82  and  _85
REMARK   23  A    between atoms: _85  and  _86
REMARK   24  A    between atoms: _91  and  _92
REMARK   25  A    between atoms: _94  and  _96
REMARK   26  A    between atoms: _96  and  _97
REMARK   27  A    between atoms: _96  and  _99
REMARK   28  A    between atoms: _99  and  _100
REMARK   29  A    between atoms: _100  and  _101
REMARK   30  A    between atoms: _104  and  _106
REMARK   31  A    between atoms: _106  and  _107
REMARK   32  A    between atoms: _106  and  _109
REMARK   33  A    between atoms: _109  and  _110
REMARK   34  A    between atoms: _110  and  _111
REMARK   35  A    between atoms: _113  and  _115
REMARK   36  A    between atoms: _115  and  _116
REMARK   37  A    between atoms: _115  and  _118
REMARK   38  A    between atoms: _118  and  _119
REMARK   39  A    between atoms: _122  and  _124
REMARK   40  A    between atoms: _124  and  _125
REMARK   41  A    between atoms: _124  and  _127
REMARK   42  A    between atoms: _127  and  _128
REMARK   43  A    between atoms: _128  and  _130
REMARK   44  A    between atoms: _130  and  ZN_449
REMARK   45  A    between atoms: _132  and  _133
REMARK   46  A    between atoms: _138  and  _140
REMARK   47  A    between atoms: _140  and  _141
REMARK   48  A    between atoms: _140  and  _143
REMARK   49  A    between atoms: _143  and  _144
REMARK   50  A    between atoms: _150  and  _152
REMARK   51  A    between atoms: _152  and  _153
REMARK   52  A    between atoms: _152  and  _155
REMARK   53  A    between atoms: _155  and  _156
REMARK   54  A    between atoms: _156  and  _157
REMARK   55  A    between atoms: _157  and  _158
REMARK   56  A    between atoms: _167  and  _169
REMARK   57  A    between atoms: _169  and  _170
REMARK   58  A    between atoms: _169  and  _172
REMARK   59  A    between atoms: _172  and  _173
REMARK   60  A    between atoms: _178  and  _179
REMARK   61  A    between atoms: _181  and  _183
REMARK   62  A    between atoms: _183  and  _184
REMARK   63  A    between atoms: _183  and  _186
REMARK   64  A    between atoms: _186  and  _187
REMARK   65  A    between atoms: _189  and  _191
REMARK   66  A    between atoms: _191  and  _192
REMARK   67  A    between atoms: _191  and  _194
REMARK   68  A    between atoms: _194  and  _195
REMARK   69  A    between atoms: _200  and  _201
REMARK   70  A    between atoms: _203  and  _205
REMARK   71  A    between atoms: _205  and  _206
REMARK   72  A    between atoms: _205  and  _208
REMARK   73  A    between atoms: _208  and  _209
REMARK   74  A    between atoms: _212  and  _214
REMARK   75  A    between atoms: _214  and  _215
REMARK   76  A    between atoms: _214  and  _217
REMARK   77  A    between atoms: _217  and  _218
REMARK   78  A    between atoms: _221  and  _223
REMARK   79  A    between atoms: _223  and  _224
REMARK   80  A    between atoms: _223  and  _226
REMARK   81  A    between atoms: _226  and  _227
REMARK   82  A    between atoms: _227  and  _228
REMARK   83  A    between atoms: _228  and  _229
REMARK   84  A    between atoms: _238  and  _240
REMARK   85  A    between atoms: _240  and  _241
REMARK   86  A    between atoms: _243  and  _245
REMARK   87  A    between atoms: _245  and  _246
REMARK   88  A    between atoms: _245  and  _248
REMARK   89  A    between atoms: _248  and  _249
REMARK   90  A    between atoms: _252  and  _254
REMARK   91  A    between atoms: _254  and  _255
REMARK   92  A    between atoms: _254  and  _257
REMARK   93  A    between atoms: _257  and  _258
REMARK   94  A    between atoms: _261  and  _263
REMARK   95  A    between atoms: _263  and  _264
REMARK   96  A    between atoms: _263  and  _266
REMARK   97  A    between atoms: _266  and  _267
REMARK   98  A    between atoms: _273  and  _275
REMARK   99  A    between atoms: _275  and  _276
REMARK  100  A    between atoms: _275  and  _278
REMARK  101  A    between atoms: _278  and  _279
REMARK  102  A    between atoms: _279  and  _280
REMARK  103  A    between atoms: _280  and  _281
REMARK  104  A    between atoms: _290  and  _292
REMARK  105  A    between atoms: _292  and  _293
REMARK  106  A    between atoms: _292  and  _295
REMARK  107  A    between atoms: _295  and  _296
REMARK  108  A    between atoms: _301  and  _302
REMARK  109  A    between atoms: _304  and  _306
REMARK  110  A    between atoms: _306  and  _307
REMARK  111  A    between atoms: _306  and  _309
REMARK  112  A    between atoms: _309  and  _310
REMARK  113  A    between atoms: _313  and  _315
REMARK  114  A    between atoms: _315  and  _316
REMARK  115  A    between atoms: _315  and  _318
REMARK  116  A    between atoms: _318  and  _319
REMARK  117  A    between atoms: _329  and  _331
REMARK  118  A    between atoms: _331  and  _332
REMARK  119  A    between atoms: _331  and  _334
REMARK  120  A    between atoms: _334  and  _335
REMARK  121  A    between atoms: _340  and  _342
REMARK  122  A    between atoms: _342  and  _343
REMARK  123  A    between atoms: _342  and  _345
REMARK  124  A    between atoms: _345  and  _346
REMARK  125  A    between atoms: _350  and  ZN_449
REMARK  126  A    between atoms: _351  and  _353
REMARK  127  A    between atoms: _353  and  _354
REMARK  128  A    between atoms: _353  and  _356
REMARK  129  A    between atoms: _356  and  _357
REMARK  130  A    between atoms: _360  and  _362
REMARK  131  A    between atoms: _362  and  _363
REMARK  132  A    between atoms: _365  and  _367
REMARK  133  A    between atoms: _367  and  _368
REMARK  134  A    between atoms: _367  and  _370
REMARK  135  A    between atoms: _370  and  _371
REMARK  136  A    between atoms: _374  and  _376
REMARK  137  A    between atoms: _376  and  _377
REMARK  138  A    between atoms: _376  and  _379
REMARK  139  A    between atoms: _379  and  _380
REMARK  140  A    between atoms: _383  and  _385
REMARK  141  A    between atoms: _385  and  _386
REMARK  142  A    between atoms: _389  and  _391
REMARK  143  A    between atoms: _391  and  _392
REMARK  144  A    between atoms: _391  and  _394
REMARK  145  A    between atoms: _394  and  _395
REMARK  146  A    between atoms: _400  and  _401
REMARK  147  A    between atoms: _403  and  _405
REMARK  148  A    between atoms: _405  and  _406
REMARK  149  A    between atoms: _405  and  _408
REMARK  150  A    between atoms: _408  and  _409
REMARK  151  A    between atoms: _409  and  _410
REMARK  152  A    between atoms: _413  and  _415
REMARK  153  A    between atoms: _415  and  _416
REMARK  154  A    between atoms: _415  and  _418
REMARK  155  A    between atoms: _418  and  _419
REMARK  156  A    between atoms: _419  and  _420
REMARK  157  A    between atoms: _420  and  _421
REMARK  158  A    between atoms: _430  and  _432
REMARK  159  A    between atoms: _432  and  _433
REMARK  160  A    between atoms: _435  and  _437
REMARK  161  A    between atoms: _437  and  _438
REMARK  162  A    between atoms: _437  and  _440
REMARK  163  A    between atoms: _440  and  _441
REMARK  164  A    between atoms: _444  and  _446
REMARK  165  A    between atoms: _446  and  _447
REMARK                            x       y       z     vdW  Elec       q    Type
REMARK                         _______ _______ _______ _____ _____    ______ ____
ROOT
ATOM      1  O   HOH     1      26.093  63.700  13.341  0.00  0.00    +0.000 OA
ENDROOT
TORSDOF 0
REMARK  Name = ../refined-set-2016/3ddg/3ddg_pocket.pdb
REMARK  165 active torsions:
REMARK  status: ('A' for Active; 'I' for Inactive)
REMARK    1  A    between atoms: _1  and  _3
REMARK    2  A    between atoms: _3  and  _4
REMARK    3  A    between atoms: _3  and  _6
REMARK    4  A    between atoms: _6  and  _7
REMARK    5  A    between atoms: _12  and  _14
REMARK    6  A    between atoms: _25  and  _28
REMARK    7  A    between atoms: _28  and  _29
REMARK    8  A    between atoms: _36  and  _37
REMARK    9  A    between atoms: _44  and  _45
REMARK   10  A    between atoms: _50  and  _52
REMARK   11  A    between atoms: _52  and  _53
REMARK   12  A    between atoms: _55  and  _57
REMARK   13  A    between atoms: _57  and  _58
REMARK   14  A    between atoms: _57  and  _60
REMARK   15  A    between atoms: _60  and  _61
REMARK   16  A    between atoms: _71  and  _73
REMARK   17  A    between atoms: _73  and  _74
REMARK   18  A    between atoms: _73  and  _76
REMARK   19  A    between atoms: _76  and  _77
REMARK   20  A    between atoms: _80  and  _82
REMARK   21  A    between atoms: _82  and  _83
REMARK   22  A    between atoms: _82  and  _85
REMARK   23  A    between atoms: _85  and  _86
REMARK   24  A    between atoms: _91  and  _92
REMARK   25  A    between atoms: _94  and  _96
REMARK   26  A    between atoms: _96  and  _97
REMARK   27  A    between atoms: _96  and  _99
REMARK   28  A    between atoms: _99  and  _100
REMARK   29  A    between atoms: _100  and  _101
REMARK   30  A    between atoms: _104  and  _106
REMARK   31  A    between atoms: _106  and  _107
REMARK   32  A    between atoms: _106  and  _109
REMARK   33  A    between atoms: _109  and  _110
REMARK   34  A    between atoms: _110  and  _111
REMARK   35  A    between atoms: _113  and  _115
REMARK   36  A    between atoms: _115  and  _116
REMARK   37  A    between atoms: _115  and  _118
REMARK   38  A    between atoms: _118  and  _119
REMARK   39  A    between atoms: _122  and  _124
REMARK   40  A    between atoms: _124  and  _125
REMARK   41  A    between atoms: _124  and  _127
REMARK   42  A    between atoms: _127  and  _128
REMARK   43  A    between atoms: _128  and  _130
REMARK   44  A    between atoms: _130  and  ZN_449
REMARK   45  A    between atoms: _132  and  _133
REMARK   46  A    between atoms: _138  and  _140
REMARK   47  A    between atoms: _140  and  _141
REMARK   48  A    between atoms: _140  and  _143
REMARK   49  A    between atoms: _143  and  _144
REMARK   50  A    between atoms: _150  and  _152
REMARK   51  A    between atoms: _152  and  _153
REMARK   52  A    between atoms: _152  and  _155
REMARK   53  A    between atoms: _155  and  _156
REMARK   54  A    between atoms: _156  and  _157
REMARK   55  A    between atoms: _157  and  _158
REMARK   56  A    between atoms: _167  and  _169
REMARK   57  A    between atoms: _169  and  _170
REMARK   58  A    between atoms: _169  and  _172
REMARK   59  A    between atoms: _172  and  _173
REMARK   60  A    between atoms: _178  and  _179
REMARK   61  A    between atoms: _181  and  _183
REMARK   62  A    between atoms: _183  and  _184
REMARK   63  A    between atoms: _183  and  _186
REMARK   64  A    between atoms: _186  and  _187
REMARK   65  A    between atoms: _189  and  _191
REMARK   66  A    between atoms: _191  and  _192
REMARK   67  A    between atoms: _191  and  _194
REMARK   68  A    between atoms: _194  and  _195
REMARK   69  A    between atoms: _200  and  _201
REMARK   70  A    between atoms: _203  and  _205
REMARK   71  A    between atoms: _205  and  _206
REMARK   72  A    between atoms: _205  and  _208
REMARK   73  A    between atoms: _208  and  _209
REMARK   74  A    between atoms: _212  and  _214
REMARK   75  A    between atoms: _214  and  _215
REMARK   76  A    between atoms: _214  and  _217
REMARK   77  A    between atoms: _217  and  _218
REMARK   78  A    between atoms: _221  and  _223
REMARK   79  A    between atoms: _223  and  _224
REMARK   80  A    between atoms: _223  and  _226
REMARK   81  A    between atoms: _226  and  _227
REMARK   82  A    between atoms: _227  and  _228
REMARK   83  A    between atoms: _228  and  _229
REMARK   84  A    between atoms: _238  and  _240
REMARK   85  A    between atoms: _240  and  _241
REMARK   86  A    between atoms: _243  and  _245
REMARK   87  A    between atoms: _245  and  _246
REMARK   88  A    between atoms: _245  and  _248
REMARK   89  A    between atoms: _248  and  _249
REMARK   90  A    between atoms: _252  and  _254
REMARK   91  A    between atoms: _254  and  _255
REMARK   92  A    between atoms: _254  and  _257
REMARK   93  A    between atoms: _257  and  _258
REMARK   94  A    between atoms: _261  and  _263
REMARK   95  A    between atoms: _263  and  _264
REMARK   96  A    between atoms: _263  and  _266
REMARK   97  A    between atoms: _266  and  _267
REMARK   98  A    between atoms: _273  and  _275
REMARK   99  A    between atoms: _275  and  _276
REMARK  100  A    between atoms: _275  and  _278
REMARK  101  A    between atoms: _278  and  _279
REMARK  102  A    between atoms: _279  and  _280
REMARK  103  A    between atoms: _280  and  _281
REMARK  104  A    between atoms: _290  and  _292
REMARK  105  A    between atoms: _292  and  _293
REMARK  106  A    between atoms: _292  and  _295
REMARK  107  A    between atoms: _295  and  _296
REMARK  108  A    between atoms: _301  and  _302
REMARK  109  A    between atoms: _304  and  _306
REMARK  110  A    between atoms: _306  and  _307
REMARK  111  A    between atoms: _306  and  _309
REMARK  112  A    between atoms: _309  and  _310
REMARK  113  A    between atoms: _313  and  _315
REMARK  114  A    between atoms: _315  and  _316
REMARK  115  A    between atoms: _315  and  _318
REMARK  116  A    between atoms: _318  and  _319
REMARK  117  A    between atoms: _329  and  _331
REMARK  118  A    between atoms: _331  and  _332
REMARK  119  A    between atoms: _331  and  _334
REMARK  120  A    between atoms: _334  and  _335
REMARK  121  A    between atoms: _340  and  _342
REMARK  122  A    between atoms: _342  and  _343
REMARK  123  A    between atoms: _342  and  _345
REMARK  124  A    between atoms: _345  and  _346
REMARK  125  A    between atoms: _350  and  ZN_449
REMARK  126  A    between atoms: _351  and  _353
REMARK  127  A    between atoms: _353  and  _354
REMARK  128  A    between atoms: _353  and  _356
REMARK  129  A    between atoms: _356  and  _357
REMARK  130  A    between atoms: _360  and  _362
REMARK  131  A    between atoms: _362  and  _363
REMARK  132  A    between atoms: _365  and  _367
REMARK  133  A    between atoms: _367  and  _368
REMARK  134  A    between atoms: _367  and  _370
REMARK  135  A    between atoms: _370  and  _371
REMARK  136  A    between atoms: _374  and  _376
REMARK  137  A    between atoms: _376  and  _377
REMARK  138  A    between atoms: _376  and  _379
REMARK  139  A    between atoms: _379  and  _380
REMARK  140  A    between atoms: _383  and  _385
REMARK  141  A    between atoms: _385  and  _386
REMARK  142  A    between atoms: _389  and  _391
REMARK  143  A    between atoms: _391  and  _392
REMARK  144  A    between atoms: _391  and  _394
REMARK  145  A    between atoms: _394  and  _395
REMARK  146  A    between atoms: _400  and  _401
REMARK  147  A    between atoms: _403  and  _405
REMARK  148  A    between atoms: _405  and  _406
REMARK  149  A    between atoms: _405  and  _408
REMARK  150  A    between atoms: _408  and  _409
REMARK  151  A    between atoms: _409  and  _410
REMARK  152  A    between atoms: _413  and  _415
REMARK  153  A    between atoms: _415  and  _416
REMARK  154  A    between atoms: _415  and  _418
REMARK  155  A    between atoms: _418  and  _419
REMARK  156  A    between atoms: _419  and  _420
REMARK  157  A    between atoms: _420  and  _421
REMARK  158  A    between atoms: _430  and  _432
REMARK  159  A    between atoms: _432  and  _433
REMARK  160  A    between atoms: _435  and  _437
REMARK  161  A    between atoms: _437  and  _438
REMARK  162  A    between atoms: _437  and  _440
REMARK  163  A    between atoms: _440  and  _441
REMARK  164  A    between atoms: _444  and  _446
REMARK  165  A    between atoms: _446  and  _447
REMARK                            x       y       z     vdW  Elec       q    Type
REMARK                         _______ _______ _______ _____ _____    ______ ____
ROOT
ATOM      1  O   HOH     1      24.876  63.246  11.347  0.00  0.00    +0.000 OA
ENDROOT
TORSDOF 0
REMARK  Name = ../refined-set-2016/3ddg/3ddg_pocket.pdb
REMARK  165 active torsions:
REMARK  status: ('A' for Active; 'I' for Inactive)
REMARK    1  A    between atoms: _1  and  _3
REMARK    2  A    between atoms: _3  and  _4
REMARK    3  A    between atoms: _3  and  _6
REMARK    4  A    between atoms: _6  and  _7
REMARK    5  A    between atoms: _12  and  _14
REMARK    6  A    between atoms: _25  and  _28
REMARK    7  A    between atoms: _28  and  _29
REMARK    8  A    between atoms: _36  and  _37
REMARK    9  A    between atoms: _44  and  _45
REMARK   10  A    between atoms: _50  and  _52
REMARK   11  A    between atoms: _52  and  _53
REMARK   12  A    between atoms: _55  and  _57
REMARK   13  A    between atoms: _57  and  _58
REMARK   14  A    between atoms: _57  and  _60
REMARK   15  A    between atoms: _60  and  _61
REMARK   16  A    between atoms: _71  and  _73
REMARK   17  A    between atoms: _73  and  _74
REMARK   18  A    between atoms: _73  and  _76
REMARK   19  A    between atoms: _76  and  _77
REMARK   20  A    between atoms: _80  and  _82
REMARK   21  A    between atoms: _82  and  _83
REMARK   22  A    between atoms: _82  and  _85
REMARK   23  A    between atoms: _85  and  _86
REMARK   24  A    between atoms: _91  and  _92
REMARK   25  A    between atoms: _94  and  _96
REMARK   26  A    between atoms: _96  and  _97
REMARK   27  A    between atoms: _96  and  _99
REMARK   28  A    between atoms: _99  and  _100
REMARK   29  A    between atoms: _100  and  _101
REMARK   30  A    between atoms: _104  and  _106
REMARK   31  A    between atoms: _106  and  _107
REMARK   32  A    between atoms: _106  and  _109
REMARK   33  A    between atoms: _109  and  _110
REMARK   34  A    between atoms: _110  and  _111
REMARK   35  A    between atoms: _113  and  _115
REMARK   36  A    between atoms: _115  and  _116
REMARK   37  A    between atoms: _115  and  _118
REMARK   38  A    between atoms: _118  and  _119
REMARK   39  A    between atoms: _122  and  _124
REMARK   40  A    between atoms: _124  and  _125
REMARK   41  A    between atoms: _124  and  _127
REMARK   42  A    between atoms: _127  and  _128
REMARK   43  A    between atoms: _128  and  _130
REMARK   44  A    between atoms: _130  and  ZN_449
REMARK   45  A    between atoms: _132  and  _133
REMARK   46  A    between atoms: _138  and  _140
REMARK   47  A    between atoms: _140  and  _141
REMARK   48  A    between atoms: _140  and  _143
REMARK   49  A    between atoms: _143  and  _144
REMARK   50  A    between atoms: _150  and  _152
REMARK   51  A    between atoms: _152  and  _153
REMARK   52  A    between atoms: _152  and  _155
REMARK   53  A    between atoms: _155  and  _156
REMARK   54  A    between atoms: _156  and  _157
REMARK   55  A    between atoms: _157  and  _158
REMARK   56  A    between atoms: _167  and  _169
REMARK   57  A    between atoms: _169  and  _170
REMARK   58  A    between atoms: _169  and  _172
REMARK   59  A    between atoms: _172  and  _173
REMARK   60  A    between atoms: _178  and  _179
REMARK   61  A    between atoms: _181  and  _183
REMARK   62  A    between atoms: _183  and  _184
REMARK   63  A    between atoms: _183  and  _186
REMARK   64  A    between atoms: _186  and  _187
REMARK   65  A    between atoms: _189  and  _191
REMARK   66  A    between atoms: _191  and  _192
REMARK   67  A    between atoms: _191  and  _194
REMARK   68  A    between atoms: _194  and  _195
REMARK   69  A    between atoms: _200  and  _201
REMARK   70  A    between atoms: _203  and  _205
REMARK   71  A    between atoms: _205  and  _206
REMARK   72  A    between atoms: _205  and  _208
REMARK   73  A    between atoms: _208  and  _209
REMARK   74  A    between atoms: _212  and  _214
REMARK   75  A    between atoms: _214  and  _215
REMARK   76  A    between atoms: _214  and  _217
REMARK   77  A    between atoms: _217  and  _218
REMARK   78  A    between atoms: _221  and  _223
REMARK   79  A    between atoms: _223  and  _224
REMARK   80  A    between atoms: _223  and  _226
REMARK   81  A    between atoms: _226  and  _227
REMARK   82  A    between atoms: _227  and  _228
REMARK   83  A    between atoms: _228  and  _229
REMARK   84  A    between atoms: _238  and  _240
REMARK   85  A    between atoms: _240  and  _241
REMARK   86  A    between atoms: _243  and  _245
REMARK   87  A    between atoms: _245  and  _246
REMARK   88  A    between atoms: _245  and  _248
REMARK   89  A    between atoms: _248  and  _249
REMARK   90  A    between atoms: _252  and  _254
REMARK   91  A    between atoms: _254  and  _255
REMARK   92  A    between atoms: _254  and  _257
REMARK   93  A    between atoms: _257  and  _258
REMARK   94  A    between atoms: _261  and  _263
REMARK   95  A    between atoms: _263  and  _264
REMARK   96  A    between atoms: _263  and  _266
REMARK   97  A    between atoms: _266  and  _267
REMARK   98  A    between atoms: _273  and  _275
REMARK   99  A    between atoms: _275  and  _276
REMARK  100  A    between atoms: _275  and  _278
REMARK  101  A    between atoms: _278  and  _279
REMARK  102  A    between atoms: _279  and  _280
REMARK  103  A    between atoms: _280  and  _281
REMARK  104  A    between atoms: _290  and  _292
REMARK  105  A    between atoms: _292  and  _293
REMARK  106  A    between atoms: _292  and  _295
REMARK  107  A    between atoms: _295  and  _296
REMARK  108  A    between atoms: _301  and  _302
REMARK  109  A    between atoms: _304  and  _306
REMARK  110  A    between atoms: _306  and  _307
REMARK  111  A    between atoms: _306  and  _309
REMARK  112  A    between atoms: _309  and  _310
REMARK  113  A    between atoms: _313  and  _315
REMARK  114  A    between atoms: _315  and  _316
REMARK  115  A    between atoms: _315  and  _318
REMARK  116  A    between atoms: _318  and  _319
REMARK  117  A    between atoms: _329  and  _331
REMARK  118  A    between atoms: _331  and  _332
REMARK  119  A    between atoms: _331  and  _334
REMARK  120  A    between atoms: _334  and  _335
REMARK  121  A    between atoms: _340  and  _342
REMARK  122  A    between atoms: _342  and  _343
REMARK  123  A    between atoms: _342  and  _345
REMARK  124  A    between atoms: _345  and  _346
REMARK  125  A    between atoms: _350  and  ZN_449
REMARK  126  A    between atoms: _351  and  _353
REMARK  127  A    between atoms: _353  and  _354
REMARK  128  A    between atoms: _353  and  _356
REMARK  129  A    between atoms: _356  and  _357
REMARK  130  A    between atoms: _360  and  _362
REMARK  131  A    between atoms: _362  and  _363
REMARK  132  A    between atoms: _365  and  _367
REMARK  133  A    between atoms: _367  and  _368
REMARK  134  A    between atoms: _367  and  _370
REMARK  135  A    between atoms: _370  and  _371
REMARK  136  A    between atoms: _374  and  _376
REMARK  137  A    between atoms: _376  and  _377
REMARK  138  A    between atoms: _376  and  _379
REMARK  139  A    between atoms: _379  and  _380
REMARK  140  A    between atoms: _383  and  _385
REMARK  141  A    between atoms: _385  and  _386
REMARK  142  A    between atoms: _389  and  _391
REMARK  143  A    between atoms: _391  and  _392
REMARK  144  A    between atoms: _391  and  _394
REMARK  145  A    between atoms: _394  and  _395
REMARK  146  A    between atoms: _400  and  _401
REMARK  147  A    between atoms: _403  and  _405
REMARK  148  A    between atoms: _405  and  _406
REMARK  149  A    between atoms: _405  and  _408
REMARK  150  A    between atoms: _408  and  _409
REMARK  151  A    between atoms: _409  and  _410
REMARK  152  A    between atoms: _413  and  _415
REMARK  153  A    between atoms: _415  and  _416
REMARK  154  A    between atoms: _415  and  _418
REMARK  155  A    between atoms: _418  and  _419
REMARK  156  A    between atoms: _419  and  _420
REMARK  157  A    between atoms: _420  and  _421
REMARK  158  A    between atoms: _430  and  _432
REMARK  159  A    between atoms: _432  and  _433
REMARK  160  A    between atoms: _435  and  _437
REMARK  161  A    between atoms: _437  and  _438
REMARK  162  A    between atoms: _437  and  _440
REMARK  163  A    between atoms: _440  and  _441
REMARK  164  A    between atoms: _444  and  _446
REMARK  165  A    between atoms: _446  and  _447
REMARK                            x       y       z     vdW  Elec       q    Type
REMARK                         _______ _______ _______ _____ _____    ______ ____
ROOT
ATOM      1  O   HOH     1      27.490  62.299  11.254  0.00  0.00    +0.000 OA
ENDROOT
TORSDOF 0
REMARK  Name = ../refined-set-2016/3ddg/3ddg_pocket.pdb
REMARK  165 active torsions:
REMARK  status: ('A' for Active; 'I' for Inactive)
REMARK    1  A    between atoms: _1  and  _3
REMARK    2  A    between atoms: _3  and  _4
REMARK    3  A    between atoms: _3  and  _6
REMARK    4  A    between atoms: _6  and  _7
REMARK    5  A    between atoms: _12  and  _14
REMARK    6  A    between atoms: _25  and  _28
REMARK    7  A    between atoms: _28  and  _29
REMARK    8  A    between atoms: _36  and  _37
REMARK    9  A    between atoms: _44  and  _45
REMARK   10  A    between atoms: _50  and  _52
REMARK   11  A    between atoms: _52  and  _53
REMARK   12  A    between atoms: _55  and  _57
REMARK   13  A    between atoms: _57  and  _58
REMARK   14  A    between atoms: _57  and  _60
REMARK   15  A    between atoms: _60  and  _61
REMARK   16  A    between atoms: _71  and  _73
REMARK   17  A    between atoms: _73  and  _74
REMARK   18  A    between atoms: _73  and  _76
REMARK   19  A    between atoms: _76  and  _77
REMARK   20  A    between atoms: _80  and  _82
REMARK   21  A    between atoms: _82  and  _83
REMARK   22  A    between atoms: _82  and  _85
REMARK   23  A    between atoms: _85  and  _86
REMARK   24  A    between atoms: _91  and  _92
REMARK   25  A    between atoms: _94  and  _96
REMARK   26  A    between atoms: _96  and  _97
REMARK   27  A    between atoms: _96  and  _99
REMARK   28  A    between atoms: _99  and  _100
REMARK   29  A    between atoms: _100  and  _101
REMARK   30  A    between atoms: _104  and  _106
REMARK   31  A    between atoms: _106  and  _107
REMARK   32  A    between atoms: _106  and  _109
REMARK   33  A    between atoms: _109  and  _110
REMARK   34  A    between atoms: _110  and  _111
REMARK   35  A    between atoms: _113  and  _115
REMARK   36  A    between atoms: _115  and  _116
REMARK   37  A    between atoms: _115  and  _118
REMARK   38  A    between atoms: _118  and  _119
REMARK   39  A    between atoms: _122  and  _124
REMARK   40  A    between atoms: _124  and  _125
REMARK   41  A    between atoms: _124  and  _127
REMARK   42  A    between atoms: _127  and  _128
REMARK   43  A    between atoms: _128  and  _130
REMARK   44  A    between atoms: _130  and  ZN_449
REMARK   45  A    between atoms: _132  and  _133
REMARK   46  A    between atoms: _138  and  _140
REMARK   47  A    between atoms: _140  and  _141
REMARK   48  A    between atoms: _140  and  _143
REMARK   49  A    between atoms: _143  and  _144
REMARK   50  A    between atoms: _150  and  _152
REMARK   51  A    between atoms: _152  and  _153
REMARK   52  A    between atoms: _152  and  _155
REMARK   53  A    between atoms: _155  and  _156
REMARK   54  A    between atoms: _156  and  _157
REMARK   55  A    between atoms: _157  and  _158
REMARK   56  A    between atoms: _167  and  _169
REMARK   57  A    between atoms: _169  and  _170
REMARK   58  A    between atoms: _169  and  _172
REMARK   59  A    between atoms: _172  and  _173
REMARK   60  A    between atoms: _178  and  _179
REMARK   61  A    between atoms: _181  and  _183
REMARK   62  A    between atoms: _183  and  _184
REMARK   63  A    between atoms: _183  and  _186
REMARK   64  A    between atoms: _186  and  _187
REMARK   65  A    between atoms: _189  and  _191
REMARK   66  A    between atoms: _191  and  _192
REMARK   67  A    between atoms: _191  and  _194
REMARK   68  A    between atoms: _194  and  _195
REMARK   69  A    between atoms: _200  and  _201
REMARK   70  A    between atoms: _203  and  _205
REMARK   71  A    between atoms: _205  and  _206
REMARK   72  A    between atoms: _205  and  _208
REMARK   73  A    between atoms: _208  and  _209
REMARK   74  A    between atoms: _212  and  _214
REMARK   75  A    between atoms: _214  and  _215
REMARK   76  A    between atoms: _214  and  _217
REMARK   77  A    between atoms: _217  and  _218
REMARK   78  A    between atoms: _221  and  _223
REMARK   79  A    between atoms: _223  and  _224
REMARK   80  A    between atoms: _223  and  _226
REMARK   81  A    between atoms: _226  and  _227
REMARK   82  A    between atoms: _227  and  _228
REMARK   83  A    between atoms: _228  and  _229
REMARK   84  A    between atoms: _238  and  _240
REMARK   85  A    between atoms: _240  and  _241
REMARK   86  A    between atoms: _243  and  _245
REMARK   87  A    between atoms: _245  and  _246
REMARK   88  A    between atoms: _245  and  _248
REMARK   89  A    between atoms: _248  and  _249
REMARK   90  A    between atoms: _252  and  _254
REMARK   91  A    between atoms: _254  and  _255
REMARK   92  A    between atoms: _254  and  _257
REMARK   93  A    between atoms: _257  and  _258
REMARK   94  A    between atoms: _261  and  _263
REMARK   95  A    between atoms: _263  and  _264
REMARK   96  A    between atoms: _263  and  _266
REMARK   97  A    between atoms: _266  and  _267
REMARK   98  A    between atoms: _273  and  _275
REMARK   99  A    between atoms: _275  and  _276
REMARK  100  A    between atoms: _275  and  _278
REMARK  101  A    between atoms: _278  and  _279
REMARK  102  A    between atoms: _279  and  _280
REMARK  103  A    between atoms: _280  and  _281
REMARK  104  A    between atoms: _290  and  _292
REMARK  105  A    between atoms: _292  and  _293
REMARK  106  A    between atoms: _292  and  _295
REMARK  107  A    between atoms: _295  and  _296
REMARK  108  A    between atoms: _301  and  _302
REMARK  109  A    between atoms: _304  and  _306
REMARK  110  A    between atoms: _306  and  _307
REMARK  111  A    between atoms: _306  and  _309
REMARK  112  A    between atoms: _309  and  _310
REMARK  113  A    between atoms: _313  and  _315
REMARK  114  A    between atoms: _315  and  _316
REMARK  115  A    between atoms: _315  and  _318
REMARK  116  A    between atoms: _318  and  _319
REMARK  117  A    between atoms: _329  and  _331
REMARK  118  A    between atoms: _331  and  _332
REMARK  119  A    between atoms: _331  and  _334
REMARK  120  A    between atoms: _334  and  _335
REMARK  121  A    between atoms: _340  and  _342
REMARK  122  A    between atoms: _342  and  _343
REMARK  123  A    between atoms: _342  and  _345
REMARK  124  A    between atoms: _345  and  _346
REMARK  125  A    between atoms: _350  and  ZN_449
REMARK  126  A    between atoms: _351  and  _353
REMARK  127  A    between atoms: _353  and  _354
REMARK  128  A    between atoms: _353  and  _356
REMARK  129  A    between atoms: _356  and  _357
REMARK  130  A    between atoms: _360  and  _362
REMARK  131  A    between atoms: _362  and  _363
REMARK  132  A    between atoms: _365  and  _367
REMARK  133  A    between atoms: _367  and  _368
REMARK  134  A    between atoms: _367  and  _370
REMARK  135  A    between atoms: _370  and  _371
REMARK  136  A    between atoms: _374  and  _376
REMARK  137  A    between atoms: _376  and  _377
REMARK  138  A    between atoms: _376  and  _379
REMARK  139  A    between atoms: _379  and  _380
REMARK  140  A    between atoms: _383  and  _385
REMARK  141  A    between atoms: _385  and  _386
REMARK  142  A    between atoms: _389  and  _391
REMARK  143  A    between atoms: _391  and  _392
REMARK  144  A    between atoms: _391  and  _394
REMARK  145  A    between atoms: _394  and  _395
REMARK  146  A    between atoms: _400  and  _401
REMARK  147  A    between atoms: _403  and  _405
REMARK  148  A    between atoms: _405  and  _406
REMARK  149  A    between atoms: _405  and  _408
REMARK  150  A    between atoms: _408  and  _409
REMARK  151  A    between atoms: _409  and  _410
REMARK  152  A    between atoms: _413  and  _415
REMARK  153  A    between atoms: _415  and  _416
REMARK  154  A    between atoms: _415  and  _418
REMARK  155  A    between atoms: _418  and  _419
REMARK  156  A    between atoms: _419  and  _420
REMARK  157  A    between atoms: _420  and  _421
REMARK  158  A    between atoms: _430  and  _432
REMARK  159  A    between atoms: _432  and  _433
REMARK  160  A    between atoms: _435  and  _437
REMARK  161  A    between atoms: _437  and  _438
REMARK  162  A    between atoms: _437  and  _440
REMARK  163  A    between atoms: _440  and  _441
REMARK  164  A    between atoms: _444  and  _446
REMARK  165  A    between atoms: _446  and  _447
REMARK                            x       y       z     vdW  Elec       q    Type
REMARK                         _______ _______ _______ _____ _____    ______ ____
ROOT
ATOM      1  O   HOH     1      27.113  64.342   9.542  0.00  0.00    +0.000 OA
ENDROOT
TORSDOF 0
REMARK  Name = ../refined-set-2016/3ddg/3ddg_pocket.pdb
REMARK  165 active torsions:
REMARK  status: ('A' for Active; 'I' for Inactive)
REMARK    1  A    between atoms: _1  and  _3
REMARK    2  A    between atoms: _3  and  _4
REMARK    3  A    between atoms: _3  and  _6
REMARK    4  A    between atoms: _6  and  _7
REMARK    5  A    between atoms: _12  and  _14
REMARK    6  A    between atoms: _25  and  _28
REMARK    7  A    between atoms: _28  and  _29
REMARK    8  A    between atoms: _36  and  _37
REMARK    9  A    between atoms: _44  and  _45
REMARK   10  A    between atoms: _50  and  _52
REMARK   11  A    between atoms: _52  and  _53
REMARK   12  A    between atoms: _55  and  _57
REMARK   13  A    between atoms: _57  and  _58
REMARK   14  A    between atoms: _57  and  _60
REMARK   15  A    between atoms: _60  and  _61
REMARK   16  A    between atoms: _71  and  _73
REMARK   17  A    between atoms: _73  and  _74
REMARK   18  A    between atoms: _73  and  _76
REMARK   19  A    between atoms: _76  and  _77
REMARK   20  A    between atoms: _80  and  _82
REMARK   21  A    between atoms: _82  and  _83
REMARK   22  A    between atoms: _82  and  _85
REMARK   23  A    between atoms: _85  and  _86
REMARK   24  A    between atoms: _91  and  _92
REMARK   25  A    between atoms: _94  and  _96
REMARK   26  A    between atoms: _96  and  _97
REMARK   27  A    between atoms: _96  and  _99
REMARK   28  A    between atoms: _99  and  _100
REMARK   29  A    between atoms: _100  and  _101
REMARK   30  A    between atoms: _104  and  _106
REMARK   31  A    between atoms: _106  and  _107
REMARK   32  A    between atoms: _106  and  _109
REMARK   33  A    between atoms: _109  and  _110
REMARK   34  A    between atoms: _110  and  _111
REMARK   35  A    between atoms: _113  and  _115
REMARK   36  A    between atoms: _115  and  _116
REMARK   37  A    between atoms: _115  and  _118
REMARK   38  A    between atoms: _118  and  _119
REMARK   39  A    between atoms: _122  and  _124
REMARK   40  A    between atoms: _124  and  _125
REMARK   41  A    between atoms: _124  and  _127
REMARK   42  A    between atoms: _127  and  _128
REMARK   43  A    between atoms: _128  and  _130
REMARK   44  A    between atoms: _130  and  ZN_449
REMARK   45  A    between atoms: _132  and  _133
REMARK   46  A    between atoms: _138  and  _140
REMARK   47  A    between atoms: _140  and  _141
REMARK   48  A    between atoms: _140  and  _143
REMARK   49  A    between atoms: _143  and  _144
REMARK   50  A    between atoms: _150  and  _152
REMARK   51  A    between atoms: _152  and  _153
REMARK   52  A    between atoms: _152  and  _155
REMARK   53  A    between atoms: _155  and  _156
REMARK   54  A    between atoms: _156  and  _157
REMARK   55  A    between atoms: _157  and  _158
REMARK   56  A    between atoms: _167  and  _169
REMARK   57  A    between atoms: _169  and  _170
REMARK   58  A    between atoms: _169  and  _172
REMARK   59  A    between atoms: _172  and  _173
REMARK   60  A    between atoms: _178  and  _179
REMARK   61  A    between atoms: _181  and  _183
REMARK   62  A    between atoms: _183  and  _184
REMARK   63  A    between atoms: _183  and  _186
REMARK   64  A    between atoms: _186  and  _187
REMARK   65  A    between atoms: _189  and  _191
REMARK   66  A    between atoms: _191  and  _192
REMARK   67  A    between atoms: _191  and  _194
REMARK   68  A    between atoms: _194  and  _195
REMARK   69  A    between atoms: _200  and  _201
REMARK   70  A    between atoms: _203  and  _205
REMARK   71  A    between atoms: _205  and  _206
REMARK   72  A    between atoms: _205  and  _208
REMARK   73  A    between atoms: _208  and  _209
REMARK   74  A    between atoms: _212  and  _214
REMARK   75  A    between atoms: _214  and  _215
REMARK   76  A    between atoms: _214  and  _217
REMARK   77  A    between atoms: _217  and  _218
REMARK   78  A    between atoms: _221  and  _223
REMARK   79  A    between atoms: _223  and  _224
REMARK   80  A    between atoms: _223  and  _226
REMARK   81  A    between atoms: _226  and  _227
REMARK   82  A    between atoms: _227  and  _228
REMARK   83  A    between atoms: _228  and  _229
REMARK   84  A    between atoms: _238  and  _240
REMARK   85  A    between atoms: _240  and  _241
REMARK   86  A    between atoms: _243  and  _245
REMARK   87  A    between atoms: _245  and  _246
REMARK   88  A    between atoms: _245  and  _248
REMARK   89  A    between atoms: _248  and  _249
REMARK   90  A    between atoms: _252  and  _254
REMARK   91  A    between atoms: _254  and  _255
REMARK   92  A    between atoms: _254  and  _257
REMARK   93  A    between atoms: _257  and  _258
REMARK   94  A    between atoms: _261  and  _263
REMARK   95  A    between atoms: _263  and  _264
REMARK   96  A    between atoms: _263  and  _266
REMARK   97  A    between atoms: _266  and  _267
REMARK   98  A    between atoms: _273  and  _275
REMARK   99  A    between atoms: _275  and  _276
REMARK  100  A    between atoms: _275  and  _278
REMARK  101  A    between atoms: _278  and  _279
REMARK  102  A    between atoms: _279  and  _280
REMARK  103  A    between atoms: _280  and  _281
REMARK  104  A    between atoms: _290  and  _292
REMARK  105  A    between atoms: _292  and  _293
REMARK  106  A    between atoms: _292  and  _295
REMARK  107  A    between atoms: _295  and  _296
REMARK  108  A    between atoms: _301  and  _302
REMARK  109  A    between atoms: _304  and  _306
REMARK  110  A    between atoms: _306  and  _307
REMARK  111  A    between atoms: _306  and  _309
REMARK  112  A    between atoms: _309  and  _310
REMARK  113  A    between atoms: _313  and  _315
REMARK  114  A    between atoms: _315  and  _316
REMARK  115  A    between atoms: _315  and  _318
REMARK  116  A    between atoms: _318  and  _319
REMARK  117  A    between atoms: _329  and  _331
REMARK  118  A    between atoms: _331  and  _332
REMARK  119  A    between atoms: _331  and  _334
REMARK  120  A    between atoms: _334  and  _335
REMARK  121  A    between atoms: _340  and  _342
REMARK  122  A    between atoms: _342  and  _343
REMARK  123  A    between atoms: _342  and  _345
REMARK  124  A    between atoms: _345  and  _346
REMARK  125  A    between atoms: _350  and  ZN_449
REMARK  126  A    between atoms: _351  and  _353
REMARK  127  A    between atoms: _353  and  _354
REMARK  128  A    between atoms: _353  and  _356
REMARK  129  A    between atoms: _356  and  _357
REMARK  130  A    between atoms: _360  and  _362
REMARK  131  A    between atoms: _362  and  _363
REMARK  132  A    between atoms: _365  and  _367
REMARK  133  A    between atoms: _367  and  _368
REMARK  134  A    between atoms: _367  and  _370
REMARK  135  A    between atoms: _370  and  _371
REMARK  136  A    between atoms: _374  and  _376
REMARK  137  A    between atoms: _376  and  _377
REMARK  138  A    between atoms: _376  and  _379
REMARK  139  A    between atoms: _379  and  _380
REMARK  140  A    between atoms: _383  and  _385
REMARK  141  A    between atoms: _385  and  _386
REMARK  142  A    between atoms: _389  and  _391
REMARK  143  A    between atoms: _391  and  _392
REMARK  144  A    between atoms: _391  and  _394
REMARK  145  A    between atoms: _394  and  _395
REMARK  146  A    between atoms: _400  and  _401
REMARK  147  A    between atoms: _403  and  _405
REMARK  148  A    between atoms: _405  and  _406
REMARK  149  A    between atoms: _405  and  _408
REMARK  150  A    between atoms: _408  and  _409
REMARK  151  A    between atoms: _409  and  _410
REMARK  152  A    between atoms: _413  and  _415
REMARK  153  A    between atoms: _415  and  _416
REMARK  154  A    between atoms: _415  and  _418
REMARK  155  A    between atoms: _418  and  _419
REMARK  156  A    between atoms: _419  and  _420
REMARK  157  A    between atoms: _420  and  _421
REMARK  158  A    between atoms: _430  and  _432
REMARK  159  A    between atoms: _432  and  _433
REMARK  160  A    between atoms: _435  and  _437
REMARK  161  A    between atoms: _437  and  _438
REMARK  162  A    between atoms: _437  and  _440
REMARK  163  A    between atoms: _440  and  _441
REMARK  164  A    between atoms: _444  and  _446
REMARK  165  A    between atoms: _446  and  _447
REMARK                            x       y       z     vdW  Elec       q    Type
REMARK                         _______ _______ _______ _____ _____    ______ ____
ROOT
ATOM      1  O   HOH     1      26.306  66.798   8.629  0.00  0.00    +0.000 OA
ENDROOT
TORSDOF 0
REMARK  Name = ../refined-set-2016/3ddg/3ddg_pocket.pdb
REMARK  165 active torsions:
REMARK  status: ('A' for Active; 'I' for Inactive)
REMARK    1  A    between atoms: _1  and  _3
REMARK    2  A    between atoms: _3  and  _4
REMARK    3  A    between atoms: _3  and  _6
REMARK    4  A    between atoms: _6  and  _7
REMARK    5  A    between atoms: _12  and  _14
REMARK    6  A    between atoms: _25  and  _28
REMARK    7  A    between atoms: _28  and  _29
REMARK    8  A    between atoms: _36  and  _37
REMARK    9  A    between atoms: _44  and  _45
REMARK   10  A    between atoms: _50  and  _52
REMARK   11  A    between atoms: _52  and  _53
REMARK   12  A    between atoms: _55  and  _57
REMARK   13  A    between atoms: _57  and  _58
REMARK   14  A    between atoms: _57  and  _60
REMARK   15  A    between atoms: _60  and  _61
REMARK   16  A    between atoms: _71  and  _73
REMARK   17  A    between atoms: _73  and  _74
REMARK   18  A    between atoms: _73  and  _76
REMARK   19  A    between atoms: _76  and  _77
REMARK   20  A    between atoms: _80  and  _82
REMARK   21  A    between atoms: _82  and  _83
REMARK   22  A    between atoms: _82  and  _85
REMARK   23  A    between atoms: _85  and  _86
REMARK   24  A    between atoms: _91  and  _92
REMARK   25  A    between atoms: _94  and  _96
REMARK   26  A    between atoms: _96  and  _97
REMARK   27  A    between atoms: _96  and  _99
REMARK   28  A    between atoms: _99  and  _100
REMARK   29  A    between atoms: _100  and  _101
REMARK   30  A    between atoms: _104  and  _106
REMARK   31  A    between atoms: _106  and  _107
REMARK   32  A    between atoms: _106  and  _109
REMARK   33  A    between atoms: _109  and  _110
REMARK   34  A    between atoms: _110  and  _111
REMARK   35  A    between atoms: _113  and  _115
REMARK   36  A    between atoms: _115  and  _116
REMARK   37  A    between atoms: _115  and  _118
REMARK   38  A    between atoms: _118  and  _119
REMARK   39  A    between atoms: _122  and  _124
REMARK   40  A    between atoms: _124  and  _125
REMARK   41  A    between atoms: _124  and  _127
REMARK   42  A    between atoms: _127  and  _128
REMARK   43  A    between atoms: _128  and  _130
REMARK   44  A    between atoms: _130  and  ZN_449
REMARK   45  A    between atoms: _132  and  _133
REMARK   46  A    between atoms: _138  and  _140
REMARK   47  A    between atoms: _140  and  _141
REMARK   48  A    between atoms: _140  and  _143
REMARK   49  A    between atoms: _143  and  _144
REMARK   50  A    between atoms: _150  and  _152
REMARK   51  A    between atoms: _152  and  _153
REMARK   52  A    between atoms: _152  and  _155
REMARK   53  A    between atoms: _155  and  _156
REMARK   54  A    between atoms: _156  and  _157
REMARK   55  A    between atoms: _157  and  _158
REMARK   56  A    between atoms: _167  and  _169
REMARK   57  A    between atoms: _169  and  _170
REMARK   58  A    between atoms: _169  and  _172
REMARK   59  A    between atoms: _172  and  _173
REMARK   60  A    between atoms: _178  and  _179
REMARK   61  A    between atoms: _181  and  _183
REMARK   62  A    between atoms: _183  and  _184
REMARK   63  A    between atoms: _183  and  _186
REMARK   64  A    between atoms: _186  and  _187
REMARK   65  A    between atoms: _189  and  _191
REMARK   66  A    between atoms: _191  and  _192
REMARK   67  A    between atoms: _191  and  _194
REMARK   68  A    between atoms: _194  and  _195
REMARK   69  A    between atoms: _200  and  _201
REMARK   70  A    between atoms: _203  and  _205
REMARK   71  A    between atoms: _205  and  _206
REMARK   72  A    between atoms: _205  and  _208
REMARK   73  A    between atoms: _208  and  _209
REMARK   74  A    between atoms: _212  and  _214
REMARK   75  A    between atoms: _214  and  _215
REMARK   76  A    between atoms: _214  and  _217
REMARK   77  A    between atoms: _217  and  _218
REMARK   78  A    between atoms: _221  and  _223
REMARK   79  A    between atoms: _223  and  _224
REMARK   80  A    between atoms: _223  and  _226
REMARK   81  A    between atoms: _226  and  _227
REMARK   82  A    between atoms: _227  and  _228
REMARK   83  A    between atoms: _228  and  _229
REMARK   84  A    between atoms: _238  and  _240
REMARK   85  A    between atoms: _240  and  _241
REMARK   86  A    between atoms: _243  and  _245
REMARK   87  A    between atoms: _245  and  _246
REMARK   88  A    between atoms: _245  and  _248
REMARK   89  A    between atoms: _248  and  _249
REMARK   90  A    between atoms: _252  and  _254
REMARK   91  A    between atoms: _254  and  _255
REMARK   92  A    between atoms: _254  and  _257
REMARK   93  A    between atoms: _257  and  _258
REMARK   94  A    between atoms: _261  and  _263
REMARK   95  A    between atoms: _263  and  _264
REMARK   96  A    between atoms: _263  and  _266
REMARK   97  A    between atoms: _266  and  _267
REMARK   98  A    between atoms: _273  and  _275
REMARK   99  A    between atoms: _275  and  _276
REMARK  100  A    between atoms: _275  and  _278
REMARK  101  A    between atoms: _278  and  _279
REMARK  102  A    between atoms: _279  and  _280
REMARK  103  A    between atoms: _280  and  _281
REMARK  104  A    between atoms: _290  and  _292
REMARK  105  A    between atoms: _292  and  _293
REMARK  106  A    between atoms: _292  and  _295
REMARK  107  A    between atoms: _295  and  _296
REMARK  108  A    between atoms: _301  and  _302
REMARK  109  A    between atoms: _304  and  _306
REMARK  110  A    between atoms: _306  and  _307
REMARK  111  A    between atoms: _306  and  _309
REMARK  112  A    between atoms: _309  and  _310
REMARK  113  A    between atoms: _313  and  _315
REMARK  114  A    between atoms: _315  and  _316
REMARK  115  A    between atoms: _315  and  _318
REMARK  116  A    between atoms: _318  and  _319
REMARK  117  A    between atoms: _329  and  _331
REMARK  118  A    between atoms: _331  and  _332
REMARK  119  A    between atoms: _331  and  _334
REMARK  120  A    between atoms: _334  and  _335
REMARK  121  A    between atoms: _340  and  _342
REMARK  122  A    between atoms: _342  and  _343
REMARK  123  A    between atoms: _342  and  _345
REMARK  124  A    between atoms: _345  and  _346
REMARK  125  A    between atoms: _350  and  ZN_449
REMARK  126  A    between atoms: _351  and  _353
REMARK  127  A    between atoms: _353  and  _354
REMARK  128  A    between atoms: _353  and  _356
REMARK  129  A    between atoms: _356  and  _357
REMARK  130  A    between atoms: _360  and  _362
REMARK  131  A    between atoms: _362  and  _363
REMARK  132  A    between atoms: _365  and  _367
REMARK  133  A    between atoms: _367  and  _368
REMARK  134  A    between atoms: _367  and  _370
REMARK  135  A    between atoms: _370  and  _371
REMARK  136  A    between atoms: _374  and  _376
REMARK  137  A    between atoms: _376  and  _377
REMARK  138  A    between atoms: _376  and  _379
REMARK  139  A    between atoms: _379  and  _380
REMARK  140  A    between atoms: _383  and  _385
REMARK  141  A    between atoms: _385  and  _386
REMARK  142  A    between atoms: _389  and  _391
REMARK  143  A    between atoms: _391  and  _392
REMARK  144  A    between atoms: _391  and  _394
REMARK  145  A    between atoms: _394  and  _395
REMARK  146  A    between atoms: _400  and  _401
REMARK  147  A    between atoms: _403  and  _405
REMARK  148  A    between atoms: _405  and  _406
REMARK  149  A    between atoms: _405  and  _408
REMARK  150  A    between atoms: _408  and  _409
REMARK  151  A    between atoms: _409  and  _410
REMARK  152  A    between atoms: _413  and  _415
REMARK  153  A    between atoms: _415  and  _416
REMARK  154  A    between atoms: _415  and  _418
REMARK  155  A    between atoms: _418  and  _419
REMARK  156  A    between atoms: _419  and  _420
REMARK  157  A    between atoms: _420  and  _421
REMARK  158  A    between atoms: _430  and  _432
REMARK  159  A    between atoms: _432  and  _433
REMARK  160  A    between atoms: _435  and  _437
REMARK  161  A    between atoms: _437  and  _438
REMARK  162  A    between atoms: _437  and  _440
REMARK  163  A    between atoms: _440  and  _441
REMARK  164  A    between atoms: _444  and  _446
REMARK  165  A    between atoms: _446  and  _447
REMARK                            x       y       z     vdW  Elec       q    Type
REMARK                         _______ _______ _______ _____ _____    ______ ____
ROOT
ATOM      1  O   HOH     1      23.809  65.357   9.520  0.00  0.00    +0.000 OA
ENDROOT
TORSDOF 0
REMARK  Name = ../refined-set-2016/3ddg/3ddg_pocket.pdb
REMARK  165 active torsions:
REMARK  status: ('A' for Active; 'I' for Inactive)
REMARK    1  A    between atoms: _1  and  _3
REMARK    2  A    between atoms: _3  and  _4
REMARK    3  A    between atoms: _3  and  _6
REMARK    4  A    between atoms: _6  and  _7
REMARK    5  A    between atoms: _12  and  _14
REMARK    6  A    between atoms: _25  and  _28
REMARK    7  A    between atoms: _28  and  _29
REMARK    8  A    between atoms: _36  and  _37
REMARK    9  A    between atoms: _44  and  _45
REMARK   10  A    between atoms: _50  and  _52
REMARK   11  A    between atoms: _52  and  _53
REMARK   12  A    between atoms: _55  and  _57
REMARK   13  A    between atoms: _57  and  _58
REMARK   14  A    between atoms: _57  and  _60
REMARK   15  A    between atoms: _60  and  _61
REMARK   16  A    between atoms: _71  and  _73
REMARK   17  A    between atoms: _73  and  _74
REMARK   18  A    between atoms: _73  and  _76
REMARK   19  A    between atoms: _76  and  _77
REMARK   20  A    between atoms: _80  and  _82
REMARK   21  A    between atoms: _82  and  _83
REMARK   22  A    between atoms: _82  and  _85
REMARK   23  A    between atoms: _85  and  _86
REMARK   24  A    between atoms: _91  and  _92
REMARK   25  A    between atoms: _94  and  _96
REMARK   26  A    between atoms: _96  and  _97
REMARK   27  A    between atoms: _96  and  _99
REMARK   28  A    between atoms: _99  and  _100
REMARK   29  A    between atoms: _100  and  _101
REMARK   30  A    between atoms: _104  and  _106
REMARK   31  A    between atoms: _106  and  _107
REMARK   32  A    between atoms: _106  and  _109
REMARK   33  A    between atoms: _109  and  _110
REMARK   34  A    between atoms: _110  and  _111
REMARK   35  A    between atoms: _113  and  _115
REMARK   36  A    between atoms: _115  and  _116
REMARK   37  A    between atoms: _115  and  _118
REMARK   38  A    between atoms: _118  and  _119
REMARK   39  A    between atoms: _122  and  _124
REMARK   40  A    between atoms: _124  and  _125
REMARK   41  A    between atoms: _124  and  _127
REMARK   42  A    between atoms: _127  and  _128
REMARK   43  A    between atoms: _128  and  _130
REMARK   44  A    between atoms: _130  and  ZN_449
REMARK   45  A    between atoms: _132  and  _133
REMARK   46  A    between atoms: _138  and  _140
REMARK   47  A    between atoms: _140  and  _141
REMARK   48  A    between atoms: _140  and  _143
REMARK   49  A    between atoms: _143  and  _144
REMARK   50  A    between atoms: _150  and  _152
REMARK   51  A    between atoms: _152  and  _153
REMARK   52  A    between atoms: _152  and  _155
REMARK   53  A    between atoms: _155  and  _156
REMARK   54  A    between atoms: _156  and  _157
REMARK   55  A    between atoms: _157  and  _158
REMARK   56  A    between atoms: _167  and  _169
REMARK   57  A    between atoms: _169  and  _170
REMARK   58  A    between atoms: _169  and  _172
REMARK   59  A    between atoms: _172  and  _173
REMARK   60  A    between atoms: _178  and  _179
REMARK   61  A    between atoms: _181  and  _183
REMARK   62  A    between atoms: _183  and  _184
REMARK   63  A    between atoms: _183  and  _186
REMARK   64  A    between atoms: _186  and  _187
REMARK   65  A    between atoms: _189  and  _191
REMARK   66  A    between atoms: _191  and  _192
REMARK   67  A    between atoms: _191  and  _194
REMARK   68  A    between atoms: _194  and  _195
REMARK   69  A    between atoms: _200  and  _201
REMARK   70  A    between atoms: _203  and  _205
REMARK   71  A    between atoms: _205  and  _206
REMARK   72  A    between atoms: _205  and  _208
REMARK   73  A    between atoms: _208  and  _209
REMARK   74  A    between atoms: _212  and  _214
REMARK   75  A    between atoms: _214  and  _215
REMARK   76  A    between atoms: _214  and  _217
REMARK   77  A    between atoms: _217  and  _218
REMARK   78  A    between atoms: _221  and  _223
REMARK   79  A    between atoms: _223  and  _224
REMARK   80  A    between atoms: _223  and  _226
REMARK   81  A    between atoms: _226  and  _227
REMARK   82  A    between atoms: _227  and  _228
REMARK   83  A    between atoms: _228  and  _229
REMARK   84  A    between atoms: _238  and  _240
REMARK   85  A    between atoms: _240  and  _241
REMARK   86  A    between atoms: _243  and  _245
REMARK   87  A    between atoms: _245  and  _246
REMARK   88  A    between atoms: _245  and  _248
REMARK   89  A    between atoms: _248  and  _249
REMARK   90  A    between atoms: _252  and  _254
REMARK   91  A    between atoms: _254  and  _255
REMARK   92  A    between atoms: _254  and  _257
REMARK   93  A    between atoms: _257  and  _258
REMARK   94  A    between atoms: _261  and  _263
REMARK   95  A    between atoms: _263  and  _264
REMARK   96  A    between atoms: _263  and  _266
REMARK   97  A    between atoms: _266  and  _267
REMARK   98  A    between atoms: _273  and  _275
REMARK   99  A    between atoms: _275  and  _276
REMARK  100  A    between atoms: _275  and  _278
REMARK  101  A    between atoms: _278  and  _279
REMARK  102  A    between atoms: _279  and  _280
REMARK  103  A    between atoms: _280  and  _281
REMARK  104  A    between atoms: _290  and  _292
REMARK  105  A    between atoms: _292  and  _293
REMARK  106  A    between atoms: _292  and  _295
REMARK  107  A    between atoms: _295  and  _296
REMARK  108  A    between atoms: _301  and  _302
REMARK  109  A    between atoms: _304  and  _306
REMARK  110  A    between atoms: _306  and  _307
REMARK  111  A    between atoms: _306  and  _309
REMARK  112  A    between atoms: _309  and  _310
REMARK  113  A    between atoms: _313  and  _315
REMARK  114  A    between atoms: _315  and  _316
REMARK  115  A    between atoms: _315  and  _318
REMARK  116  A    between atoms: _318  and  _319
REMARK  117  A    between atoms: _329  and  _331
REMARK  118  A    between atoms: _331  and  _332
REMARK  119  A    between atoms: _331  and  _334
REMARK  120  A    between atoms: _334  and  _335
REMARK  121  A    between atoms: _340  and  _342
REMARK  122  A    between atoms: _342  and  _343
REMARK  123  A    between atoms: _342  and  _345
REMARK  124  A    between atoms: _345  and  _346
REMARK  125  A    between atoms: _350  and  ZN_449
REMARK  126  A    between atoms: _351  and  _353
REMARK  127  A    between atoms: _353  and  _354
REMARK  128  A    between atoms: _353  and  _356
REMARK  129  A    between atoms: _356  and  _357
REMARK  130  A    between atoms: _360  and  _362
REMARK  131  A    between atoms: _362  and  _363
REMARK  132  A    between atoms: _365  and  _367
REMARK  133  A    between atoms: _367  and  _368
REMARK  134  A    between atoms: _367  and  _370
REMARK  135  A    between atoms: _370  and  _371
REMARK  136  A    between atoms: _374  and  _376
REMARK  137  A    between atoms: _376  and  _377
REMARK  138  A    between atoms: _376  and  _379
REMARK  139  A    between atoms: _379  and  _380
REMARK  140  A    between atoms: _383  and  _385
REMARK  141  A    between atoms: _385  and  _386
REMARK  142  A    between atoms: _389  and  _391
REMARK  143  A    between atoms: _391  and  _392
REMARK  144  A    between atoms: _391  and  _394
REMARK  145  A    between atoms: _394  and  _395
REMARK  146  A    between atoms: _400  and  _401
REMARK  147  A    between atoms: _403  and  _405
REMARK  148  A    between atoms: _405  and  _406
REMARK  149  A    between atoms: _405  and  _408
REMARK  150  A    between atoms: _408  and  _409
REMARK  151  A    between atoms: _409  and  _410
REMARK  152  A    between atoms: _413  and  _415
REMARK  153  A    between atoms: _415  and  _416
REMARK  154  A    between atoms: _415  and  _418
REMARK  155  A    between atoms: _418  and  _419
REMARK  156  A    between atoms: _419  and  _420
REMARK  157  A    between atoms: _420  and  _421
REMARK  158  A    between atoms: _430  and  _432
REMARK  159  A    between atoms: _432  and  _433
REMARK  160  A    between atoms: _435  and  _437
REMARK  161  A    between atoms: _437  and  _438
REMARK  162  A    between atoms: _437  and  _440
REMARK  163  A    between atoms: _440  and  _441
REMARK  164  A    between atoms: _444  and  _446
REMARK  165  A    between atoms: _446  and  _447
REMARK                            x       y       z     vdW  Elec       q    Type
REMARK                         _______ _______ _______ _____ _____    ______ ____
ROOT
ATOM      1  O   HOH     1      24.301  63.487   7.537  0.00  0.00    +0.000 OA
ENDROOT
TORSDOF 0
REMARK  Name = ../refined-set-2016/3ddg/3ddg_pocket.pdb
REMARK  165 active torsions:
REMARK  status: ('A' for Active; 'I' for Inactive)
REMARK    1  A    between atoms: _1  and  _3
REMARK    2  A    between atoms: _3  and  _4
REMARK    3  A    between atoms: _3  and  _6
REMARK    4  A    between atoms: _6  and  _7
REMARK    5  A    between atoms: _12  and  _14
REMARK    6  A    between atoms: _25  and  _28
REMARK    7  A    between atoms: _28  and  _29
REMARK    8  A    between atoms: _36  and  _37
REMARK    9  A    between atoms: _44  and  _45
REMARK   10  A    between atoms: _50  and  _52
REMARK   11  A    between atoms: _52  and  _53
REMARK   12  A    between atoms: _55  and  _57
REMARK   13  A    between atoms: _57  and  _58
REMARK   14  A    between atoms: _57  and  _60
REMARK   15  A    between atoms: _60  and  _61
REMARK   16  A    between atoms: _71  and  _73
REMARK   17  A    between atoms: _73  and  _74
REMARK   18  A    between atoms: _73  and  _76
REMARK   19  A    between atoms: _76  and  _77
REMARK   20  A    between atoms: _80  and  _82
REMARK   21  A    between atoms: _82  and  _83
REMARK   22  A    between atoms: _82  and  _85
REMARK   23  A    between atoms: _85  and  _86
REMARK   24  A    between atoms: _91  and  _92
REMARK   25  A    between atoms: _94  and  _96
REMARK   26  A    between atoms: _96  and  _97
REMARK   27  A    between atoms: _96  and  _99
REMARK   28  A    between atoms: _99  and  _100
REMARK   29  A    between atoms: _100  and  _101
REMARK   30  A    between atoms: _104  and  _106
REMARK   31  A    between atoms: _106  and  _107
REMARK   32  A    between atoms: _106  and  _109
REMARK   33  A    between atoms: _109  and  _110
REMARK   34  A    between atoms: _110  and  _111
REMARK   35  A    between atoms: _113  and  _115
REMARK   36  A    between atoms: _115  and  _116
REMARK   37  A    between atoms: _115  and  _118
REMARK   38  A    between atoms: _118  and  _119
REMARK   39  A    between atoms: _122  and  _124
REMARK   40  A    between atoms: _124  and  _125
REMARK   41  A    between atoms: _124  and  _127
REMARK   42  A    between atoms: _127  and  _128
REMARK   43  A    between atoms: _128  and  _130
REMARK   44  A    between atoms: _130  and  ZN_449
REMARK   45  A    between atoms: _132  and  _133
REMARK   46  A    between atoms: _138  and  _140
REMARK   47  A    between atoms: _140  and  _141
REMARK   48  A    between atoms: _140  and  _143
REMARK   49  A    between atoms: _143  and  _144
REMARK   50  A    between atoms: _150  and  _152
REMARK   51  A    between atoms: _152  and  _153
REMARK   52  A    between atoms: _152  and  _155
REMARK   53  A    between atoms: _155  and  _156
REMARK   54  A    between atoms: _156  and  _157
REMARK   55  A    between atoms: _157  and  _158
REMARK   56  A    between atoms: _167  and  _169
REMARK   57  A    between atoms: _169  and  _170
REMARK   58  A    between atoms: _169  and  _172
REMARK   59  A    between atoms: _172  and  _173
REMARK   60  A    between atoms: _178  and  _179
REMARK   61  A    between atoms: _181  and  _183
REMARK   62  A    between atoms: _183  and  _184
REMARK   63  A    between atoms: _183  and  _186
REMARK   64  A    between atoms: _186  and  _187
REMARK   65  A    between atoms: _189  and  _191
REMARK   66  A    between atoms: _191  and  _192
REMARK   67  A    between atoms: _191  and  _194
REMARK   68  A    between atoms: _194  and  _195
REMARK   69  A    between atoms: _200  and  _201
REMARK   70  A    between atoms: _203  and  _205
REMARK   71  A    between atoms: _205  and  _206
REMARK   72  A    between atoms: _205  and  _208
REMARK   73  A    between atoms: _208  and  _209
REMARK   74  A    between atoms: _212  and  _214
REMARK   75  A    between atoms: _214  and  _215
REMARK   76  A    between atoms: _214  and  _217
REMARK   77  A    between atoms: _217  and  _218
REMARK   78  A    between atoms: _221  and  _223
REMARK   79  A    between atoms: _223  and  _224
REMARK   80  A    between atoms: _223  and  _226
REMARK   81  A    between atoms: _226  and  _227
REMARK   82  A    between atoms: _227  and  _228
REMARK   83  A    between atoms: _228  and  _229
REMARK   84  A    between atoms: _238  and  _240
REMARK   85  A    between atoms: _240  and  _241
REMARK   86  A    between atoms: _243  and  _245
REMARK   87  A    between atoms: _245  and  _246
REMARK   88  A    between atoms: _245  and  _248
REMARK   89  A    between atoms: _248  and  _249
REMARK   90  A    between atoms: _252  and  _254
REMARK   91  A    between atoms: _254  and  _255
REMARK   92  A    between atoms: _254  and  _257
REMARK   93  A    between atoms: _257  and  _258
REMARK   94  A    between atoms: _261  and  _263
REMARK   95  A    between atoms: _263  and  _264
REMARK   96  A    between atoms: _263  and  _266
REMARK   97  A    between atoms: _266  and  _267
REMARK   98  A    between atoms: _273  and  _275
REMARK   99  A    between atoms: _275  and  _276
REMARK  100  A    between atoms: _275  and  _278
REMARK  101  A    between atoms: _278  and  _279
REMARK  102  A    between atoms: _279  and  _280
REMARK  103  A    between atoms: _280  and  _281
REMARK  104  A    between atoms: _290  and  _292
REMARK  105  A    between atoms: _292  and  _293
REMARK  106  A    between atoms: _292  and  _295
REMARK  107  A    between atoms: _295  and  _296
REMARK  108  A    between atoms: _301  and  _302
REMARK  109  A    between atoms: _304  and  _306
REMARK  110  A    between atoms: _306  and  _307
REMARK  111  A    between atoms: _306  and  _309
REMARK  112  A    between atoms: _309  and  _310
REMARK  113  A    between atoms: _313  and  _315
REMARK  114  A    between atoms: _315  and  _316
REMARK  115  A    between atoms: _315  and  _318
REMARK  116  A    between atoms: _318  and  _319
REMARK  117  A    between atoms: _329  and  _331
REMARK  118  A    between atoms: _331  and  _332
REMARK  119  A    between atoms: _331  and  _334
REMARK  120  A    between atoms: _334  and  _335
REMARK  121  A    between atoms: _340  and  _342
REMARK  122  A    between atoms: _342  and  _343
REMARK  123  A    between atoms: _342  and  _345
REMARK  124  A    between atoms: _345  and  _346
REMARK  125  A    between atoms: _350  and  ZN_449
REMARK  126  A    between atoms: _351  and  _353
REMARK  127  A    between atoms: _353  and  _354
REMARK  128  A    between atoms: _353  and  _356
REMARK  129  A    between atoms: _356  and  _357
REMARK  130  A    between atoms: _360  and  _362
REMARK  131  A    between atoms: _362  and  _363
REMARK  132  A    between atoms: _365  and  _367
REMARK  133  A    between atoms: _367  and  _368
REMARK  134  A    between atoms: _367  and  _370
REMARK  135  A    between atoms: _370  and  _371
REMARK  136  A    between atoms: _374  and  _376
REMARK  137  A    between atoms: _376  and  _377
REMARK  138  A    between atoms: _376  and  _379
REMARK  139  A    between atoms: _379  and  _380
REMARK  140  A    between atoms: _383  and  _385
REMARK  141  A    between atoms: _385  and  _386
REMARK  142  A    between atoms: _389  and  _391
REMARK  143  A    between atoms: _391  and  _392
REMARK  144  A    between atoms: _391  and  _394
REMARK  145  A    between atoms: _394  and  _395
REMARK  146  A    between atoms: _400  and  _401
REMARK  147  A    between atoms: _403  and  _405
REMARK  148  A    between atoms: _405  and  _406
REMARK  149  A    between atoms: _405  and  _408
REMARK  150  A    between atoms: _408  and  _409
REMARK  151  A    between atoms: _409  and  _410
REMARK  152  A    between atoms: _413  and  _415
REMARK  153  A    between atoms: _415  and  _416
REMARK  154  A    between atoms: _415  and  _418
REMARK  155  A    between atoms: _418  and  _419
REMARK  156  A    between atoms: _419  and  _420
REMARK  157  A    between atoms: _420  and  _421
REMARK  158  A    between atoms: _430  and  _432
REMARK  159  A    between atoms: _432  and  _433
REMARK  160  A    between atoms: _435  and  _437
REMARK  161  A    between atoms: _437  and  _438
REMARK  162  A    between atoms: _437  and  _440
REMARK  163  A    between atoms: _440  and  _441
REMARK  164  A    between atoms: _444  and  _446
REMARK  165  A    between atoms: _446  and  _447
REMARK                            x       y       z     vdW  Elec       q    Type
REMARK                         _______ _______ _______ _____ _____    ______ ____
ROOT
ATOM      1  O   HOH     1      24.900  61.344   9.099  0.00  0.00    +0.000 OA
ENDROOT
TORSDOF 0
REMARK  Name = ../refined-set-2016/3ddg/3ddg_pocket.pdb
REMARK  165 active torsions:
REMARK  status: ('A' for Active; 'I' for Inactive)
REMARK    1  A    between atoms: _1  and  _3
REMARK    2  A    between atoms: _3  and  _4
REMARK    3  A    between atoms: _3  and  _6
REMARK    4  A    between atoms: _6  and  _7
REMARK    5  A    between atoms: _12  and  _14
REMARK    6  A    between atoms: _25  and  _28
REMARK    7  A    between atoms: _28  and  _29
REMARK    8  A    between atoms: _36  and  _37
REMARK    9  A    between atoms: _44  and  _45
REMARK   10  A    between atoms: _50  and  _52
REMARK   11  A    between atoms: _52  and  _53
REMARK   12  A    between atoms: _55  and  _57
REMARK   13  A    between atoms: _57  and  _58
REMARK   14  A    between atoms: _57  and  _60
REMARK   15  A    between atoms: _60  and  _61
REMARK   16  A    between atoms: _71  and  _73
REMARK   17  A    between atoms: _73  and  _74
REMARK   18  A    between atoms: _73  and  _76
REMARK   19  A    between atoms: _76  and  _77
REMARK   20  A    between atoms: _80  and  _82
REMARK   21  A    between atoms: _82  and  _83
REMARK   22  A    between atoms: _82  and  _85
REMARK   23  A    between atoms: _85  and  _86
REMARK   24  A    between atoms: _91  and  _92
REMARK   25  A    between atoms: _94  and  _96
REMARK   26  A    between atoms: _96  and  _97
REMARK   27  A    between atoms: _96  and  _99
REMARK   28  A    between atoms: _99  and  _100
REMARK   29  A    between atoms: _100  and  _101
REMARK   30  A    between atoms: _104  and  _106
REMARK   31  A    between atoms: _106  and  _107
REMARK   32  A    between atoms: _106  and  _109
REMARK   33  A    between atoms: _109  and  _110
REMARK   34  A    between atoms: _110  and  _111
REMARK   35  A    between atoms: _113  and  _115
REMARK   36  A    between atoms: _115  and  _116
REMARK   37  A    between atoms: _115  and  _118
REMARK   38  A    between atoms: _118  and  _119
REMARK   39  A    between atoms: _122  and  _124
REMARK   40  A    between atoms: _124  and  _125
REMARK   41  A    between atoms: _124  and  _127
REMARK   42  A    between atoms: _127  and  _128
REMARK   43  A    between atoms: _128  and  _130
REMARK   44  A    between atoms: _130  and  ZN_449
REMARK   45  A    between atoms: _132  and  _133
REMARK   46  A    between atoms: _138  and  _140
REMARK   47  A    between atoms: _140  and  _141
REMARK   48  A    between atoms: _140  and  _143
REMARK   49  A    between atoms: _143  and  _144
REMARK   50  A    between atoms: _150  and  _152
REMARK   51  A    between atoms: _152  and  _153
REMARK   52  A    between atoms: _152  and  _155
REMARK   53  A    between atoms: _155  and  _156
REMARK   54  A    between atoms: _156  and  _157
REMARK   55  A    between atoms: _157  and  _158
REMARK   56  A    between atoms: _167  and  _169
REMARK   57  A    between atoms: _169  and  _170
REMARK   58  A    between atoms: _169  and  _172
REMARK   59  A    between atoms: _172  and  _173
REMARK   60  A    between atoms: _178  and  _179
REMARK   61  A    between atoms: _181  and  _183
REMARK   62  A    between atoms: _183  and  _184
REMARK   63  A    between atoms: _183  and  _186
REMARK   64  A    between atoms: _186  and  _187
REMARK   65  A    between atoms: _189  and  _191
REMARK   66  A    between atoms: _191  and  _192
REMARK   67  A    between atoms: _191  and  _194
REMARK   68  A    between atoms: _194  and  _195
REMARK   69  A    between atoms: _200  and  _201
REMARK   70  A    between atoms: _203  and  _205
REMARK   71  A    between atoms: _205  and  _206
REMARK   72  A    between atoms: _205  and  _208
REMARK   73  A    between atoms: _208  and  _209
REMARK   74  A    between atoms: _212  and  _214
REMARK   75  A    between atoms: _214  and  _215
REMARK   76  A    between atoms: _214  and  _217
REMARK   77  A    between atoms: _217  and  _218
REMARK   78  A    between atoms: _221  and  _223
REMARK   79  A    between atoms: _223  and  _224
REMARK   80  A    between atoms: _223  and  _226
REMARK   81  A    between atoms: _226  and  _227
REMARK   82  A    between atoms: _227  and  _228
REMARK   83  A    between atoms: _228  and  _229
REMARK   84  A    between atoms: _238  and  _240
REMARK   85  A    between atoms: _240  and  _241
REMARK   86  A    between atoms: _243  and  _245
REMARK   87  A    between atoms: _245  and  _246
REMARK   88  A    between atoms: _245  and  _248
REMARK   89  A    between atoms: _248  and  _249
REMARK   90  A    between atoms: _252  and  _254
REMARK   91  A    between atoms: _254  and  _255
REMARK   92  A    between atoms: _254  and  _257
REMARK   93  A    between atoms: _257  and  _258
REMARK   94  A    between atoms: _261  and  _263
REMARK   95  A    between atoms: _263  and  _264
REMARK   96  A    between atoms: _263  and  _266
REMARK   97  A    between atoms: _266  and  _267
REMARK   98  A    between atoms: _273  and  _275
REMARK   99  A    between atoms: _275  and  _276
REMARK  100  A    between atoms: _275  and  _278
REMARK  101  A    between atoms: _278  and  _279
REMARK  102  A    between atoms: _279  and  _280
REMARK  103  A    between atoms: _280  and  _281
REMARK  104  A    between atoms: _290  and  _292
REMARK  105  A    between atoms: _292  and  _293
REMARK  106  A    between atoms: _292  and  _295
REMARK  107  A    between atoms: _295  and  _296
REMARK  108  A    between atoms: _301  and  _302
REMARK  109  A    between atoms: _304  and  _306
REMARK  110  A    between atoms: _306  and  _307
REMARK  111  A    between atoms: _306  and  _309
REMARK  112  A    between atoms: _309  and  _310
REMARK  113  A    between atoms: _313  and  _315
REMARK  114  A    between atoms: _315  and  _316
REMARK  115  A    between atoms: _315  and  _318
REMARK  116  A    between atoms: _318  and  _319
REMARK  117  A    between atoms: _329  and  _331
REMARK  118  A    between atoms: _331  and  _332
REMARK  119  A    between atoms: _331  and  _334
REMARK  120  A    between atoms: _334  and  _335
REMARK  121  A    between atoms: _340  and  _342
REMARK  122  A    between atoms: _342  and  _343
REMARK  123  A    between atoms: _342  and  _345
REMARK  124  A    between atoms: _345  and  _346
REMARK  125  A    between atoms: _350  and  ZN_449
REMARK  126  A    between atoms: _351  and  _353
REMARK  127  A    between atoms: _353  and  _354
REMARK  128  A    between atoms: _353  and  _356
REMARK  129  A    between atoms: _356  and  _357
REMARK  130  A    between atoms: _360  and  _362
REMARK  131  A    between atoms: _362  and  _363
REMARK  132  A    between atoms: _365  and  _367
REMARK  133  A    between atoms: _367  and  _368
REMARK  134  A    between atoms: _367  and  _370
REMARK  135  A    between atoms: _370  and  _371
REMARK  136  A    between atoms: _374  and  _376
REMARK  137  A    between atoms: _376  and  _377
REMARK  138  A    between atoms: _376  and  _379
REMARK  139  A    between atoms: _379  and  _380
REMARK  140  A    between atoms: _383  and  _385
REMARK  141  A    between atoms: _385  and  _386
REMARK  142  A    between atoms: _389  and  _391
REMARK  143  A    between atoms: _391  and  _392
REMARK  144  A    between atoms: _391  and  _394
REMARK  145  A    between atoms: _394  and  _395
REMARK  146  A    between atoms: _400  and  _401
REMARK  147  A    between atoms: _403  and  _405
REMARK  148  A    between atoms: _405  and  _406
REMARK  149  A    between atoms: _405  and  _408
REMARK  150  A    between atoms: _408  and  _409
REMARK  151  A    between atoms: _409  and  _410
REMARK  152  A    between atoms: _413  and  _415
REMARK  153  A    between atoms: _415  and  _416
REMARK  154  A    between atoms: _415  and  _418
REMARK  155  A    between atoms: _418  and  _419
REMARK  156  A    between atoms: _419  and  _420
REMARK  157  A    between atoms: _420  and  _421
REMARK  158  A    between atoms: _430  and  _432
REMARK  159  A    between atoms: _432  and  _433
REMARK  160  A    between atoms: _435  and  _437
REMARK  161  A    between atoms: _437  and  _438
REMARK  162  A    between atoms: _437  and  _440
REMARK  163  A    between atoms: _440  and  _441
REMARK  164  A    between atoms: _444  and  _446
REMARK  165  A    between atoms: _446  and  _447
REMARK                            x       y       z     vdW  Elec       q    Type
REMARK                         _______ _______ _______ _____ _____    ______ ____
ROOT
ATOM      1  O   HOH     1      27.207  59.539   8.587  0.00  0.00    +0.000 OA
ENDROOT
TORSDOF 0
REMARK  Name = ../refined-set-2016/3ddg/3ddg_pocket.pdb
REMARK  165 active torsions:
REMARK  status: ('A' for Active; 'I' for Inactive)
REMARK    1  A    between atoms: _1  and  _3
REMARK    2  A    between atoms: _3  and  _4
REMARK    3  A    between atoms: _3  and  _6
REMARK    4  A    between atoms: _6  and  _7
REMARK    5  A    between atoms: _12  and  _14
REMARK    6  A    between atoms: _25  and  _28
REMARK    7  A    between atoms: _28  and  _29
REMARK    8  A    between atoms: _36  and  _37
REMARK    9  A    between atoms: _44  and  _45
REMARK   10  A    between atoms: _50  and  _52
REMARK   11  A    between atoms: _52  and  _53
REMARK   12  A    between atoms: _55  and  _57
REMARK   13  A    between atoms: _57  and  _58
REMARK   14  A    between atoms: _57  and  _60
REMARK   15  A    between atoms: _60  and  _61
REMARK   16  A    between atoms: _71  and  _73
REMARK   17  A    between atoms: _73  and  _74
REMARK   18  A    between atoms: _73  and  _76
REMARK   19  A    between atoms: _76  and  _77
REMARK   20  A    between atoms: _80  and  _82
REMARK   21  A    between atoms: _82  and  _83
REMARK   22  A    between atoms: _82  and  _85
REMARK   23  A    between atoms: _85  and  _86
REMARK   24  A    between atoms: _91  and  _92
REMARK   25  A    between atoms: _94  and  _96
REMARK   26  A    between atoms: _96  and  _97
REMARK   27  A    between atoms: _96  and  _99
REMARK   28  A    between atoms: _99  and  _100
REMARK   29  A    between atoms: _100  and  _101
REMARK   30  A    between atoms: _104  and  _106
REMARK   31  A    between atoms: _106  and  _107
REMARK   32  A    between atoms: _106  and  _109
REMARK   33  A    between atoms: _109  and  _110
REMARK   34  A    between atoms: _110  and  _111
REMARK   35  A    between atoms: _113  and  _115
REMARK   36  A    between atoms: _115  and  _116
REMARK   37  A    between atoms: _115  and  _118
REMARK   38  A    between atoms: _118  and  _119
REMARK   39  A    between atoms: _122  and  _124
REMARK   40  A    between atoms: _124  and  _125
REMARK   41  A    between atoms: _124  and  _127
REMARK   42  A    between atoms: _127  and  _128
REMARK   43  A    between atoms: _128  and  _130
REMARK   44  A    between atoms: _130  and  ZN_449
REMARK   45  A    between atoms: _132  and  _133
REMARK   46  A    between atoms: _138  and  _140
REMARK   47  A    between atoms: _140  and  _141
REMARK   48  A    between atoms: _140  and  _143
REMARK   49  A    between atoms: _143  and  _144
REMARK   50  A    between atoms: _150  and  _152
REMARK   51  A    between atoms: _152  and  _153
REMARK   52  A    between atoms: _152  and  _155
REMARK   53  A    between atoms: _155  and  _156
REMARK   54  A    between atoms: _156  and  _157
REMARK   55  A    between atoms: _157  and  _158
REMARK   56  A    between atoms: _167  and  _169
REMARK   57  A    between atoms: _169  and  _170
REMARK   58  A    between atoms: _169  and  _172
REMARK   59  A    between atoms: _172  and  _173
REMARK   60  A    between atoms: _178  and  _179
REMARK   61  A    between atoms: _181  and  _183
REMARK   62  A    between atoms: _183  and  _184
REMARK   63  A    between atoms: _183  and  _186
REMARK   64  A    between atoms: _186  and  _187
REMARK   65  A    between atoms: _189  and  _191
REMARK   66  A    between atoms: _191  and  _192
REMARK   67  A    between atoms: _191  and  _194
REMARK   68  A    between atoms: _194  and  _195
REMARK   69  A    between atoms: _200  and  _201
REMARK   70  A    between atoms: _203  and  _205
REMARK   71  A    between atoms: _205  and  _206
REMARK   72  A    between atoms: _205  and  _208
REMARK   73  A    between atoms: _208  and  _209
REMARK   74  A    between atoms: _212  and  _214
REMARK   75  A    between atoms: _214  and  _215
REMARK   76  A    between atoms: _214  and  _217
REMARK   77  A    between atoms: _217  and  _218
REMARK   78  A    between atoms: _221  and  _223
REMARK   79  A    between atoms: _223  and  _224
REMARK   80  A    between atoms: _223  and  _226
REMARK   81  A    between atoms: _226  and  _227
REMARK   82  A    between atoms: _227  and  _228
REMARK   83  A    between atoms: _228  and  _229
REMARK   84  A    between atoms: _238  and  _240
REMARK   85  A    between atoms: _240  and  _241
REMARK   86  A    between atoms: _243  and  _245
REMARK   87  A    between atoms: _245  and  _246
REMARK   88  A    between atoms: _245  and  _248
REMARK   89  A    between atoms: _248  and  _249
REMARK   90  A    between atoms: _252  and  _254
REMARK   91  A    between atoms: _254  and  _255
REMARK   92  A    between atoms: _254  and  _257
REMARK   93  A    between atoms: _257  and  _258
REMARK   94  A    between atoms: _261  and  _263
REMARK   95  A    between atoms: _263  and  _264
REMARK   96  A    between atoms: _263  and  _266
REMARK   97  A    between atoms: _266  and  _267
REMARK   98  A    between atoms: _273  and  _275
REMARK   99  A    between atoms: _275  and  _276
REMARK  100  A    between atoms: _275  and  _278
REMARK  101  A    between atoms: _278  and  _279
REMARK  102  A    between atoms: _279  and  _280
REMARK  103  A    between atoms: _280  and  _281
REMARK  104  A    between atoms: _290  and  _292
REMARK  105  A    between atoms: _292  and  _293
REMARK  106  A    between atoms: _292  and  _295
REMARK  107  A    between atoms: _295  and  _296
REMARK  108  A    between atoms: _301  and  _302
REMARK  109  A    between atoms: _304  and  _306
REMARK  110  A    between atoms: _306  and  _307
REMARK  111  A    between atoms: _306  and  _309
REMARK  112  A    between atoms: _309  and  _310
REMARK  113  A    between atoms: _313  and  _315
REMARK  114  A    between atoms: _315  and  _316
REMARK  115  A    between atoms: _315  and  _318
REMARK  116  A    between atoms: _318  and  _319
REMARK  117  A    between atoms: _329  and  _331
REMARK  118  A    between atoms: _331  and  _332
REMARK  119  A    between atoms: _331  and  _334
REMARK  120  A    between atoms: _334  and  _335
REMARK  121  A    between atoms: _340  and  _342
REMARK  122  A    between atoms: _342  and  _343
REMARK  123  A    between atoms: _342  and  _345
REMARK  124  A    between atoms: _345  and  _346
REMARK  125  A    between atoms: _350  and  ZN_449
REMARK  126  A    between atoms: _351  and  _353
REMARK  127  A    between atoms: _353  and  _354
REMARK  128  A    between atoms: _353  and  _356
REMARK  129  A    between atoms: _356  and  _357
REMARK  130  A    between atoms: _360  and  _362
REMARK  131  A    between atoms: _362  and  _363
REMARK  132  A    between atoms: _365  and  _367
REMARK  133  A    between atoms: _367  and  _368
REMARK  134  A    between atoms: _367  and  _370
REMARK  135  A    between atoms: _370  and  _371
REMARK  136  A    between atoms: _374  and  _376
REMARK  137  A    between atoms: _376  and  _377
REMARK  138  A    between atoms: _376  and  _379
REMARK  139  A    between atoms: _379  and  _380
REMARK  140  A    between atoms: _383  and  _385
REMARK  141  A    between atoms: _385  and  _386
REMARK  142  A    between atoms: _389  and  _391
REMARK  143  A    between atoms: _391  and  _392
REMARK  144  A    between atoms: _391  and  _394
REMARK  145  A    between atoms: _394  and  _395
REMARK  146  A    between atoms: _400  and  _401
REMARK  147  A    between atoms: _403  and  _405
REMARK  148  A    between atoms: _405  and  _406
REMARK  149  A    between atoms: _405  and  _408
REMARK  150  A    between atoms: _408  and  _409
REMARK  151  A    between atoms: _409  and  _410
REMARK  152  A    between atoms: _413  and  _415
REMARK  153  A    between atoms: _415  and  _416
REMARK  154  A    between atoms: _415  and  _418
REMARK  155  A    between atoms: _418  and  _419
REMARK  156  A    between atoms: _419  and  _420
REMARK  157  A    between atoms: _420  and  _421
REMARK  158  A    between atoms: _430  and  _432
REMARK  159  A    between atoms: _432  and  _433
REMARK  160  A    between atoms: _435  and  _437
REMARK  161  A    between atoms: _437  and  _438
REMARK  162  A    between atoms: _437  and  _440
REMARK  163  A    between atoms: _440  and  _441
REMARK  164  A    between atoms: _444  and  _446
REMARK  165  A    between atoms: _446  and  _447
REMARK                            x       y       z     vdW  Elec       q    Type
REMARK                         _______ _______ _______ _____ _____    ______ ____
ROOT
ATOM      1  O   HOH     1      20.793  68.227   8.679  0.00  0.00    +0.000 OA
ENDROOT
TORSDOF 0
REMARK  Name = ../refined-set-2016/3ddg/3ddg_pocket.pdb
REMARK  165 active torsions:
REMARK  status: ('A' for Active; 'I' for Inactive)
REMARK    1  A    between atoms: _1  and  _3
REMARK    2  A    between atoms: _3  and  _4
REMARK    3  A    between atoms: _3  and  _6
REMARK    4  A    between atoms: _6  and  _7
REMARK    5  A    between atoms: _12  and  _14
REMARK    6  A    between atoms: _25  and  _28
REMARK    7  A    between atoms: _28  and  _29
REMARK    8  A    between atoms: _36  and  _37
REMARK    9  A    between atoms: _44  and  _45
REMARK   10  A    between atoms: _50  and  _52
REMARK   11  A    between atoms: _52  and  _53
REMARK   12  A    between atoms: _55  and  _57
REMARK   13  A    between atoms: _57  and  _58
REMARK   14  A    between atoms: _57  and  _60
REMARK   15  A    between atoms: _60  and  _61
REMARK   16  A    between atoms: _71  and  _73
REMARK   17  A    between atoms: _73  and  _74
REMARK   18  A    between atoms: _73  and  _76
REMARK   19  A    between atoms: _76  and  _77
REMARK   20  A    between atoms: _80  and  _82
REMARK   21  A    between atoms: _82  and  _83
REMARK   22  A    between atoms: _82  and  _85
REMARK   23  A    between atoms: _85  and  _86
REMARK   24  A    between atoms: _91  and  _92
REMARK   25  A    between atoms: _94  and  _96
REMARK   26  A    between atoms: _96  and  _97
REMARK   27  A    between atoms: _96  and  _99
REMARK   28  A    between atoms: _99  and  _100
REMARK   29  A    between atoms: _100  and  _101
REMARK   30  A    between atoms: _104  and  _106
REMARK   31  A    between atoms: _106  and  _107
REMARK   32  A    between atoms: _106  and  _109
REMARK   33  A    between atoms: _109  and  _110
REMARK   34  A    between atoms: _110  and  _111
REMARK   35  A    between atoms: _113  and  _115
REMARK   36  A    between atoms: _115  and  _116
REMARK   37  A    between atoms: _115  and  _118
REMARK   38  A    between atoms: _118  and  _119
REMARK   39  A    between atoms: _122  and  _124
REMARK   40  A    between atoms: _124  and  _125
REMARK   41  A    between atoms: _124  and  _127
REMARK   42  A    between atoms: _127  and  _128
REMARK   43  A    between atoms: _128  and  _130
REMARK   44  A    between atoms: _130  and  ZN_449
REMARK   45  A    between atoms: _132  and  _133
REMARK   46  A    between atoms: _138  and  _140
REMARK   47  A    between atoms: _140  and  _141
REMARK   48  A    between atoms: _140  and  _143
REMARK   49  A    between atoms: _143  and  _144
REMARK   50  A    between atoms: _150  and  _152
REMARK   51  A    between atoms: _152  and  _153
REMARK   52  A    between atoms: _152  and  _155
REMARK   53  A    between atoms: _155  and  _156
REMARK   54  A    between atoms: _156  and  _157
REMARK   55  A    between atoms: _157  and  _158
REMARK   56  A    between atoms: _167  and  _169
REMARK   57  A    between atoms: _169  and  _170
REMARK   58  A    between atoms: _169  and  _172
REMARK   59  A    between atoms: _172  and  _173
REMARK   60  A    between atoms: _178  and  _179
REMARK   61  A    between atoms: _181  and  _183
REMARK   62  A    between atoms: _183  and  _184
REMARK   63  A    between atoms: _183  and  _186
REMARK   64  A    between atoms: _186  and  _187
REMARK   65  A    between atoms: _189  and  _191
REMARK   66  A    between atoms: _191  and  _192
REMARK   67  A    between atoms: _191  and  _194
REMARK   68  A    between atoms: _194  and  _195
REMARK   69  A    between atoms: _200  and  _201
REMARK   70  A    between atoms: _203  and  _205
REMARK   71  A    between atoms: _205  and  _206
REMARK   72  A    between atoms: _205  and  _208
REMARK   73  A    between atoms: _208  and  _209
REMARK   74  A    between atoms: _212  and  _214
REMARK   75  A    between atoms: _214  and  _215
REMARK   76  A    between atoms: _214  and  _217
REMARK   77  A    between atoms: _217  and  _218
REMARK   78  A    between atoms: _221  and  _223
REMARK   79  A    between atoms: _223  and  _224
REMARK   80  A    between atoms: _223  and  _226
REMARK   81  A    between atoms: _226  and  _227
REMARK   82  A    between atoms: _227  and  _228
REMARK   83  A    between atoms: _228  and  _229
REMARK   84  A    between atoms: _238  and  _240
REMARK   85  A    between atoms: _240  and  _241
REMARK   86  A    between atoms: _243  and  _245
REMARK   87  A    between atoms: _245  and  _246
REMARK   88  A    between atoms: _245  and  _248
REMARK   89  A    between atoms: _248  and  _249
REMARK   90  A    between atoms: _252  and  _254
REMARK   91  A    between atoms: _254  and  _255
REMARK   92  A    between atoms: _254  and  _257
REMARK   93  A    between atoms: _257  and  _258
REMARK   94  A    between atoms: _261  and  _263
REMARK   95  A    between atoms: _263  and  _264
REMARK   96  A    between atoms: _263  and  _266
REMARK   97  A    between atoms: _266  and  _267
REMARK   98  A    between atoms: _273  and  _275
REMARK   99  A    between atoms: _275  and  _276
REMARK  100  A    between atoms: _275  and  _278
REMARK  101  A    between atoms: _278  and  _279
REMARK  102  A    between atoms: _279  and  _280
REMARK  103  A    between atoms: _280  and  _281
REMARK  104  A    between atoms: _290  and  _292
REMARK  105  A    between atoms: _292  and  _293
REMARK  106  A    between atoms: _292  and  _295
REMARK  107  A    between atoms: _295  and  _296
REMARK  108  A    between atoms: _301  and  _302
REMARK  109  A    between atoms: _304  and  _306
REMARK  110  A    between atoms: _306  and  _307
REMARK  111  A    between atoms: _306  and  _309
REMARK  112  A    between atoms: _309  and  _310
REMARK  113  A    between atoms: _313  and  _315
REMARK  114  A    between atoms: _315  and  _316
REMARK  115  A    between atoms: _315  and  _318
REMARK  116  A    between atoms: _318  and  _319
REMARK  117  A    between atoms: _329  and  _331
REMARK  118  A    between atoms: _331  and  _332
REMARK  119  A    between atoms: _331  and  _334
REMARK  120  A    between atoms: _334  and  _335
REMARK  121  A    between atoms: _340  and  _342
REMARK  122  A    between atoms: _342  and  _343
REMARK  123  A    between atoms: _342  and  _345
REMARK  124  A    between atoms: _345  and  _346
REMARK  125  A    between atoms: _350  and  ZN_449
REMARK  126  A    between atoms: _351  and  _353
REMARK  127  A    between atoms: _353  and  _354
REMARK  128  A    between atoms: _353  and  _356
REMARK  129  A    between atoms: _356  and  _357
REMARK  130  A    between atoms: _360  and  _362
REMARK  131  A    between atoms: _362  and  _363
REMARK  132  A    between atoms: _365  and  _367
REMARK  133  A    between atoms: _367  and  _368
REMARK  134  A    between atoms: _367  and  _370
REMARK  135  A    between atoms: _370  and  _371
REMARK  136  A    between atoms: _374  and  _376
REMARK  137  A    between atoms: _376  and  _377
REMARK  138  A    between atoms: _376  and  _379
REMARK  139  A    between atoms: _379  and  _380
REMARK  140  A    between atoms: _383  and  _385
REMARK  141  A    between atoms: _385  and  _386
REMARK  142  A    between atoms: _389  and  _391
REMARK  143  A    between atoms: _391  and  _392
REMARK  144  A    between atoms: _391  and  _394
REMARK  145  A    between atoms: _394  and  _395
REMARK  146  A    between atoms: _400  and  _401
REMARK  147  A    between atoms: _403  and  _405
REMARK  148  A    between atoms: _405  and  _406
REMARK  149  A    between atoms: _405  and  _408
REMARK  150  A    between atoms: _408  and  _409
REMARK  151  A    between atoms: _409  and  _410
REMARK  152  A    between atoms: _413  and  _415
REMARK  153  A    between atoms: _415  and  _416
REMARK  154  A    between atoms: _415  and  _418
REMARK  155  A    between atoms: _418  and  _419
REMARK  156  A    between atoms: _419  and  _420
REMARK  157  A    between atoms: _420  and  _421
REMARK  158  A    between atoms: _430  and  _432
REMARK  159  A    between atoms: _432  and  _433
REMARK  160  A    between atoms: _435  and  _437
REMARK  161  A    between atoms: _437  and  _438
REMARK  162  A    between atoms: _437  and  _440
REMARK  163  A    between atoms: _440  and  _441
REMARK  164  A    between atoms: _444  and  _446
REMARK  165  A    between atoms: _446  and  _447
REMARK                            x       y       z     vdW  Elec       q    Type
REMARK                         _______ _______ _______ _____ _____    ______ ____
ROOT
ATOM      1  O   HOH     1      25.601  73.986   8.747  0.00  0.00    +0.000 OA
ENDROOT
TORSDOF 0
REMARK  Name = ../refined-set-2016/3ddg/3ddg_pocket.pdb
REMARK  165 active torsions:
REMARK  status: ('A' for Active; 'I' for Inactive)
REMARK    1  A    between atoms: _1  and  _3
REMARK    2  A    between atoms: _3  and  _4
REMARK    3  A    between atoms: _3  and  _6
REMARK    4  A    between atoms: _6  and  _7
REMARK    5  A    between atoms: _12  and  _14
REMARK    6  A    between atoms: _25  and  _28
REMARK    7  A    between atoms: _28  and  _29
REMARK    8  A    between atoms: _36  and  _37
REMARK    9  A    between atoms: _44  and  _45
REMARK   10  A    between atoms: _50  and  _52
REMARK   11  A    between atoms: _52  and  _53
REMARK   12  A    between atoms: _55  and  _57
REMARK   13  A    between atoms: _57  and  _58
REMARK   14  A    between atoms: _57  and  _60
REMARK   15  A    between atoms: _60  and  _61
REMARK   16  A    between atoms: _71  and  _73
REMARK   17  A    between atoms: _73  and  _74
REMARK   18  A    between atoms: _73  and  _76
REMARK   19  A    between atoms: _76  and  _77
REMARK   20  A    between atoms: _80  and  _82
REMARK   21  A    between atoms: _82  and  _83
REMARK   22  A    between atoms: _82  and  _85
REMARK   23  A    between atoms: _85  and  _86
REMARK   24  A    between atoms: _91  and  _92
REMARK   25  A    between atoms: _94  and  _96
REMARK   26  A    between atoms: _96  and  _97
REMARK   27  A    between atoms: _96  and  _99
REMARK   28  A    between atoms: _99  and  _100
REMARK   29  A    between atoms: _100  and  _101
REMARK   30  A    between atoms: _104  and  _106
REMARK   31  A    between atoms: _106  and  _107
REMARK   32  A    between atoms: _106  and  _109
REMARK   33  A    between atoms: _109  and  _110
REMARK   34  A    between atoms: _110  and  _111
REMARK   35  A    between atoms: _113  and  _115
REMARK   36  A    between atoms: _115  and  _116
REMARK   37  A    between atoms: _115  and  _118
REMARK   38  A    between atoms: _118  and  _119
REMARK   39  A    between atoms: _122  and  _124
REMARK   40  A    between atoms: _124  and  _125
REMARK   41  A    between atoms: _124  and  _127
REMARK   42  A    between atoms: _127  and  _128
REMARK   43  A    between atoms: _128  and  _130
REMARK   44  A    between atoms: _130  and  ZN_449
REMARK   45  A    between atoms: _132  and  _133
REMARK   46  A    between atoms: _138  and  _140
REMARK   47  A    between atoms: _140  and  _141
REMARK   48  A    between atoms: _140  and  _143
REMARK   49  A    between atoms: _143  and  _144
REMARK   50  A    between atoms: _150  and  _152
REMARK   51  A    between atoms: _152  and  _153
REMARK   52  A    between atoms: _152  and  _155
REMARK   53  A    between atoms: _155  and  _156
REMARK   54  A    between atoms: _156  and  _157
REMARK   55  A    between atoms: _157  and  _158
REMARK   56  A    between atoms: _167  and  _169
REMARK   57  A    between atoms: _169  and  _170
REMARK   58  A    between atoms: _169  and  _172
REMARK   59  A    between atoms: _172  and  _173
REMARK   60  A    between atoms: _178  and  _179
REMARK   61  A    between atoms: _181  and  _183
REMARK   62  A    between atoms: _183  and  _184
REMARK   63  A    between atoms: _183  and  _186
REMARK   64  A    between atoms: _186  and  _187
REMARK   65  A    between atoms: _189  and  _191
REMARK   66  A    between atoms: _191  and  _192
REMARK   67  A    between atoms: _191  and  _194
REMARK   68  A    between atoms: _194  and  _195
REMARK   69  A    between atoms: _200  and  _201
REMARK   70  A    between atoms: _203  and  _205
REMARK   71  A    between atoms: _205  and  _206
REMARK   72  A    between atoms: _205  and  _208
REMARK   73  A    between atoms: _208  and  _209
REMARK   74  A    between atoms: _212  and  _214
REMARK   75  A    between atoms: _214  and  _215
REMARK   76  A    between atoms: _214  and  _217
REMARK   77  A    between atoms: _217  and  _218
REMARK   78  A    between atoms: _221  and  _223
REMARK   79  A    between atoms: _223  and  _224
REMARK   80  A    between atoms: _223  and  _226
REMARK   81  A    between atoms: _226  and  _227
REMARK   82  A    between atoms: _227  and  _228
REMARK   83  A    between atoms: _228  and  _229
REMARK   84  A    between atoms: _238  and  _240
REMARK   85  A    between atoms: _240  and  _241
REMARK   86  A    between atoms: _243  and  _245
REMARK   87  A    between atoms: _245  and  _246
REMARK   88  A    between atoms: _245  and  _248
REMARK   89  A    between atoms: _248  and  _249
REMARK   90  A    between atoms: _252  and  _254
REMARK   91  A    between atoms: _254  and  _255
REMARK   92  A    between atoms: _254  and  _257
REMARK   93  A    between atoms: _257  and  _258
REMARK   94  A    between atoms: _261  and  _263
REMARK   95  A    between atoms: _263  and  _264
REMARK   96  A    between atoms: _263  and  _266
REMARK   97  A    between atoms: _266  and  _267
REMARK   98  A    between atoms: _273  and  _275
REMARK   99  A    between atoms: _275  and  _276
REMARK  100  A    between atoms: _275  and  _278
REMARK  101  A    between atoms: _278  and  _279
REMARK  102  A    between atoms: _279  and  _280
REMARK  103  A    between atoms: _280  and  _281
REMARK  104  A    between atoms: _290  and  _292
REMARK  105  A    between atoms: _292  and  _293
REMARK  106  A    between atoms: _292  and  _295
REMARK  107  A    between atoms: _295  and  _296
REMARK  108  A    between atoms: _301  and  _302
REMARK  109  A    between atoms: _304  and  _306
REMARK  110  A    between atoms: _306  and  _307
REMARK  111  A    between atoms: _306  and  _309
REMARK  112  A    between atoms: _309  and  _310
REMARK  113  A    between atoms: _313  and  _315
REMARK  114  A    between atoms: _315  and  _316
REMARK  115  A    between atoms: _315  and  _318
REMARK  116  A    between atoms: _318  and  _319
REMARK  117  A    between atoms: _329  and  _331
REMARK  118  A    between atoms: _331  and  _332
REMARK  119  A    between atoms: _331  and  _334
REMARK  120  A    between atoms: _334  and  _335
REMARK  121  A    between atoms: _340  and  _342
REMARK  122  A    between atoms: _342  and  _343
REMARK  123  A    between atoms: _342  and  _345
REMARK  124  A    between atoms: _345  and  _346
REMARK  125  A    between atoms: _350  and  ZN_449
REMARK  126  A    between atoms: _351  and  _353
REMARK  127  A    between atoms: _353  and  _354
REMARK  128  A    between atoms: _353  and  _356
REMARK  129  A    between atoms: _356  and  _357
REMARK  130  A    between atoms: _360  and  _362
REMARK  131  A    between atoms: _362  and  _363
REMARK  132  A    between atoms: _365  and  _367
REMARK  133  A    between atoms: _367  and  _368
REMARK  134  A    between atoms: _367  and  _370
REMARK  135  A    between atoms: _370  and  _371
REMARK  136  A    between atoms: _374  and  _376
REMARK  137  A    between atoms: _376  and  _377
REMARK  138  A    between atoms: _376  and  _379
REMARK  139  A    between atoms: _379  and  _380
REMARK  140  A    between atoms: _383  and  _385
REMARK  141  A    between atoms: _385  and  _386
REMARK  142  A    between atoms: _389  and  _391
REMARK  143  A    between atoms: _391  and  _392
REMARK  144  A    between atoms: _391  and  _394
REMARK  145  A    between atoms: _394  and  _395
REMARK  146  A    between atoms: _400  and  _401
REMARK  147  A    between atoms: _403  and  _405
REMARK  148  A    between atoms: _405  and  _406
REMARK  149  A    between atoms: _405  and  _408
REMARK  150  A    between atoms: _408  and  _409
REMARK  151  A    between atoms: _409  and  _410
REMARK  152  A    between atoms: _413  and  _415
REMARK  153  A    between atoms: _415  and  _416
REMARK  154  A    between atoms: _415  and  _418
REMARK  155  A    between atoms: _418  and  _419
REMARK  156  A    between atoms: _419  and  _420
REMARK  157  A    between atoms: _420  and  _421
REMARK  158  A    between atoms: _430  and  _432
REMARK  159  A    between atoms: _432  and  _433
REMARK  160  A    between atoms: _435  and  _437
REMARK  161  A    between atoms: _437  and  _438
REMARK  162  A    between atoms: _437  and  _440
REMARK  163  A    between atoms: _440  and  _441
REMARK  164  A    between atoms: _444  and  _446
REMARK  165  A    between atoms: _446  and  _447
REMARK                            x       y       z     vdW  Elec       q    Type
REMARK                         _______ _______ _______ _____ _____    ______ ____
ROOT
ATOM      1  O   HOH     1      26.395  75.121  10.980  0.00  0.00    +0.000 OA
ENDROOT
TORSDOF 0
REMARK  Name = ../refined-set-2016/3ddg/3ddg_pocket.pdb
REMARK  165 active torsions:
REMARK  status: ('A' for Active; 'I' for Inactive)
REMARK    1  A    between atoms: _1  and  _3
REMARK    2  A    between atoms: _3  and  _4
REMARK    3  A    between atoms: _3  and  _6
REMARK    4  A    between atoms: _6  and  _7
REMARK    5  A    between atoms: _12  and  _14
REMARK    6  A    between atoms: _25  and  _28
REMARK    7  A    between atoms: _28  and  _29
REMARK    8  A    between atoms: _36  and  _37
REMARK    9  A    between atoms: _44  and  _45
REMARK   10  A    between atoms: _50  and  _52
REMARK   11  A    between atoms: _52  and  _53
REMARK   12  A    between atoms: _55  and  _57
REMARK   13  A    between atoms: _57  and  _58
REMARK   14  A    between atoms: _57  and  _60
REMARK   15  A    between atoms: _60  and  _61
REMARK   16  A    between atoms: _71  and  _73
REMARK   17  A    between atoms: _73  and  _74
REMARK   18  A    between atoms: _73  and  _76
REMARK   19  A    between atoms: _76  and  _77
REMARK   20  A    between atoms: _80  and  _82
REMARK   21  A    between atoms: _82  and  _83
REMARK   22  A    between atoms: _82  and  _85
REMARK   23  A    between atoms: _85  and  _86
REMARK   24  A    between atoms: _91  and  _92
REMARK   25  A    between atoms: _94  and  _96
REMARK   26  A    between atoms: _96  and  _97
REMARK   27  A    between atoms: _96  and  _99
REMARK   28  A    between atoms: _99  and  _100
REMARK   29  A    between atoms: _100  and  _101
REMARK   30  A    between atoms: _104  and  _106
REMARK   31  A    between atoms: _106  and  _107
REMARK   32  A    between atoms: _106  and  _109
REMARK   33  A    between atoms: _109  and  _110
REMARK   34  A    between atoms: _110  and  _111
REMARK   35  A    between atoms: _113  and  _115
REMARK   36  A    between atoms: _115  and  _116
REMARK   37  A    between atoms: _115  and  _118
REMARK   38  A    between atoms: _118  and  _119
REMARK   39  A    between atoms: _122  and  _124
REMARK   40  A    between atoms: _124  and  _125
REMARK   41  A    between atoms: _124  and  _127
REMARK   42  A    between atoms: _127  and  _128
REMARK   43  A    between atoms: _128  and  _130
REMARK   44  A    between atoms: _130  and  ZN_449
REMARK   45  A    between atoms: _132  and  _133
REMARK   46  A    between atoms: _138  and  _140
REMARK   47  A    between atoms: _140  and  _141
REMARK   48  A    between atoms: _140  and  _143
REMARK   49  A    between atoms: _143  and  _144
REMARK   50  A    between atoms: _150  and  _152
REMARK   51  A    between atoms: _152  and  _153
REMARK   52  A    between atoms: _152  and  _155
REMARK   53  A    between atoms: _155  and  _156
REMARK   54  A    between atoms: _156  and  _157
REMARK   55  A    between atoms: _157  and  _158
REMARK   56  A    between atoms: _167  and  _169
REMARK   57  A    between atoms: _169  and  _170
REMARK   58  A    between atoms: _169  and  _172
REMARK   59  A    between atoms: _172  and  _173
REMARK   60  A    between atoms: _178  and  _179
REMARK   61  A    between atoms: _181  and  _183
REMARK   62  A    between atoms: _183  and  _184
REMARK   63  A    between atoms: _183  and  _186
REMARK   64  A    between atoms: _186  and  _187
REMARK   65  A    between atoms: _189  and  _191
REMARK   66  A    between atoms: _191  and  _192
REMARK   67  A    between atoms: _191  and  _194
REMARK   68  A    between atoms: _194  and  _195
REMARK   69  A    between atoms: _200  and  _201
REMARK   70  A    between atoms: _203  and  _205
REMARK   71  A    between atoms: _205  and  _206
REMARK   72  A    between atoms: _205  and  _208
REMARK   73  A    between atoms: _208  and  _209
REMARK   74  A    between atoms: _212  and  _214
REMARK   75  A    between atoms: _214  and  _215
REMARK   76  A    between atoms: _214  and  _217
REMARK   77  A    between atoms: _217  and  _218
REMARK   78  A    between atoms: _221  and  _223
REMARK   79  A    between atoms: _223  and  _224
REMARK   80  A    between atoms: _223  and  _226
REMARK   81  A    between atoms: _226  and  _227
REMARK   82  A    between atoms: _227  and  _228
REMARK   83  A    between atoms: _228  and  _229
REMARK   84  A    between atoms: _238  and  _240
REMARK   85  A    between atoms: _240  and  _241
REMARK   86  A    between atoms: _243  and  _245
REMARK   87  A    between atoms: _245  and  _246
REMARK   88  A    between atoms: _245  and  _248
REMARK   89  A    between atoms: _248  and  _249
REMARK   90  A    between atoms: _252  and  _254
REMARK   91  A    between atoms: _254  and  _255
REMARK   92  A    between atoms: _254  and  _257
REMARK   93  A    between atoms: _257  and  _258
REMARK   94  A    between atoms: _261  and  _263
REMARK   95  A    between atoms: _263  and  _264
REMARK   96  A    between atoms: _263  and  _266
REMARK   97  A    between atoms: _266  and  _267
REMARK   98  A    between atoms: _273  and  _275
REMARK   99  A    between atoms: _275  and  _276
REMARK  100  A    between atoms: _275  and  _278
REMARK  101  A    between atoms: _278  and  _279
REMARK  102  A    between atoms: _279  and  _280
REMARK  103  A    between atoms: _280  and  _281
REMARK  104  A    between atoms: _290  and  _292
REMARK  105  A    between atoms: _292  and  _293
REMARK  106  A    between atoms: _292  and  _295
REMARK  107  A    between atoms: _295  and  _296
REMARK  108  A    between atoms: _301  and  _302
REMARK  109  A    between atoms: _304  and  _306
REMARK  110  A    between atoms: _306  and  _307
REMARK  111  A    between atoms: _306  and  _309
REMARK  112  A    between atoms: _309  and  _310
REMARK  113  A    between atoms: _313  and  _315
REMARK  114  A    between atoms: _315  and  _316
REMARK  115  A    between atoms: _315  and  _318
REMARK  116  A    between atoms: _318  and  _319
REMARK  117  A    between atoms: _329  and  _331
REMARK  118  A    between atoms: _331  and  _332
REMARK  119  A    between atoms: _331  and  _334
REMARK  120  A    between atoms: _334  and  _335
REMARK  121  A    between atoms: _340  and  _342
REMARK  122  A    between atoms: _342  and  _343
REMARK  123  A    between atoms: _342  and  _345
REMARK  124  A    between atoms: _345  and  _346
REMARK  125  A    between atoms: _350  and  ZN_449
REMARK  126  A    between atoms: _351  and  _353
REMARK  127  A    between atoms: _353  and  _354
REMARK  128  A    between atoms: _353  and  _356
REMARK  129  A    between atoms: _356  and  _357
REMARK  130  A    between atoms: _360  and  _362
REMARK  131  A    between atoms: _362  and  _363
REMARK  132  A    between atoms: _365  and  _367
REMARK  133  A    between atoms: _367  and  _368
REMARK  134  A    between atoms: _367  and  _370
REMARK  135  A    between atoms: _370  and  _371
REMARK  136  A    between atoms: _374  and  _376
REMARK  137  A    between atoms: _376  and  _377
REMARK  138  A    between atoms: _376  and  _379
REMARK  139  A    between atoms: _379  and  _380
REMARK  140  A    between atoms: _383  and  _385
REMARK  141  A    between atoms: _385  and  _386
REMARK  142  A    between atoms: _389  and  _391
REMARK  143  A    between atoms: _391  and  _392
REMARK  144  A    between atoms: _391  and  _394
REMARK  145  A    between atoms: _394  and  _395
REMARK  146  A    between atoms: _400  and  _401
REMARK  147  A    between atoms: _403  and  _405
REMARK  148  A    between atoms: _405  and  _406
REMARK  149  A    between atoms: _405  and  _408
REMARK  150  A    between atoms: _408  and  _409
REMARK  151  A    between atoms: _409  and  _410
REMARK  152  A    between atoms: _413  and  _415
REMARK  153  A    between atoms: _415  and  _416
REMARK  154  A    between atoms: _415  and  _418
REMARK  155  A    between atoms: _418  and  _419
REMARK  156  A    between atoms: _419  and  _420
REMARK  157  A    between atoms: _420  and  _421
REMARK  158  A    between atoms: _430  and  _432
REMARK  159  A    between atoms: _432  and  _433
REMARK  160  A    between atoms: _435  and  _437
REMARK  161  A    between atoms: _437  and  _438
REMARK  162  A    between atoms: _437  and  _440
REMARK  163  A    between atoms: _440  and  _441
REMARK  164  A    between atoms: _444  and  _446
REMARK  165  A    between atoms: _446  and  _447
REMARK                            x       y       z     vdW  Elec       q    Type
REMARK                         _______ _______ _______ _____ _____    ______ ____
ROOT
ATOM      1  O   HOH     1      29.973  75.815  10.813  0.00  0.00    +0.000 OA
ENDROOT
TORSDOF 0
REMARK  Name = ../refined-set-2016/3ddg/3ddg_pocket.pdb
REMARK  165 active torsions:
REMARK  status: ('A' for Active; 'I' for Inactive)
REMARK    1  A    between atoms: _1  and  _3
REMARK    2  A    between atoms: _3  and  _4
REMARK    3  A    between atoms: _3  and  _6
REMARK    4  A    between atoms: _6  and  _7
REMARK    5  A    between atoms: _12  and  _14
REMARK    6  A    between atoms: _25  and  _28
REMARK    7  A    between atoms: _28  and  _29
REMARK    8  A    between atoms: _36  and  _37
REMARK    9  A    between atoms: _44  and  _45
REMARK   10  A    between atoms: _50  and  _52
REMARK   11  A    between atoms: _52  and  _53
REMARK   12  A    between atoms: _55  and  _57
REMARK   13  A    between atoms: _57  and  _58
REMARK   14  A    between atoms: _57  and  _60
REMARK   15  A    between atoms: _60  and  _61
REMARK   16  A    between atoms: _71  and  _73
REMARK   17  A    between atoms: _73  and  _74
REMARK   18  A    between atoms: _73  and  _76
REMARK   19  A    between atoms: _76  and  _77
REMARK   20  A    between atoms: _80  and  _82
REMARK   21  A    between atoms: _82  and  _83
REMARK   22  A    between atoms: _82  and  _85
REMARK   23  A    between atoms: _85  and  _86
REMARK   24  A    between atoms: _91  and  _92
REMARK   25  A    between atoms: _94  and  _96
REMARK   26  A    between atoms: _96  and  _97
REMARK   27  A    between atoms: _96  and  _99
REMARK   28  A    between atoms: _99  and  _100
REMARK   29  A    between atoms: _100  and  _101
REMARK   30  A    between atoms: _104  and  _106
REMARK   31  A    between atoms: _106  and  _107
REMARK   32  A    between atoms: _106  and  _109
REMARK   33  A    between atoms: _109  and  _110
REMARK   34  A    between atoms: _110  and  _111
REMARK   35  A    between atoms: _113  and  _115
REMARK   36  A    between atoms: _115  and  _116
REMARK   37  A    between atoms: _115  and  _118
REMARK   38  A    between atoms: _118  and  _119
REMARK   39  A    between atoms: _122  and  _124
REMARK   40  A    between atoms: _124  and  _125
REMARK   41  A    between atoms: _124  and  _127
REMARK   42  A    between atoms: _127  and  _128
REMARK   43  A    between atoms: _128  and  _130
REMARK   44  A    between atoms: _130  and  ZN_449
REMARK   45  A    between atoms: _132  and  _133
REMARK   46  A    between atoms: _138  and  _140
REMARK   47  A    between atoms: _140  and  _141
REMARK   48  A    between atoms: _140  and  _143
REMARK   49  A    between atoms: _143  and  _144
REMARK   50  A    between atoms: _150  and  _152
REMARK   51  A    between atoms: _152  and  _153
REMARK   52  A    between atoms: _152  and  _155
REMARK   53  A    between atoms: _155  and  _156
REMARK   54  A    between atoms: _156  and  _157
REMARK   55  A    between atoms: _157  and  _158
REMARK   56  A    between atoms: _167  and  _169
REMARK   57  A    between atoms: _169  and  _170
REMARK   58  A    between atoms: _169  and  _172
REMARK   59  A    between atoms: _172  and  _173
REMARK   60  A    between atoms: _178  and  _179
REMARK   61  A    between atoms: _181  and  _183
REMARK   62  A    between atoms: _183  and  _184
REMARK   63  A    between atoms: _183  and  _186
REMARK   64  A    between atoms: _186  and  _187
REMARK   65  A    between atoms: _189  and  _191
REMARK   66  A    between atoms: _191  and  _192
REMARK   67  A    between atoms: _191  and  _194
REMARK   68  A    between atoms: _194  and  _195
REMARK   69  A    between atoms: _200  and  _201
REMARK   70  A    between atoms: _203  and  _205
REMARK   71  A    between atoms: _205  and  _206
REMARK   72  A    between atoms: _205  and  _208
REMARK   73  A    between atoms: _208  and  _209
REMARK   74  A    between atoms: _212  and  _214
REMARK   75  A    between atoms: _214  and  _215
REMARK   76  A    between atoms: _214  and  _217
REMARK   77  A    between atoms: _217  and  _218
REMARK   78  A    between atoms: _221  and  _223
REMARK   79  A    between atoms: _223  and  _224
REMARK   80  A    between atoms: _223  and  _226
REMARK   81  A    between atoms: _226  and  _227
REMARK   82  A    between atoms: _227  and  _228
REMARK   83  A    between atoms: _228  and  _229
REMARK   84  A    between atoms: _238  and  _240
REMARK   85  A    between atoms: _240  and  _241
REMARK   86  A    between atoms: _243  and  _245
REMARK   87  A    between atoms: _245  and  _246
REMARK   88  A    between atoms: _245  and  _248
REMARK   89  A    between atoms: _248  and  _249
REMARK   90  A    between atoms: _252  and  _254
REMARK   91  A    between atoms: _254  and  _255
REMARK   92  A    between atoms: _254  and  _257
REMARK   93  A    between atoms: _257  and  _258
REMARK   94  A    between atoms: _261  and  _263
REMARK   95  A    between atoms: _263  and  _264
REMARK   96  A    between atoms: _263  and  _266
REMARK   97  A    between atoms: _266  and  _267
REMARK   98  A    between atoms: _273  and  _275
REMARK   99  A    between atoms: _275  and  _276
REMARK  100  A    between atoms: _275  and  _278
REMARK  101  A    between atoms: _278  and  _279
REMARK  102  A    between atoms: _279  and  _280
REMARK  103  A    between atoms: _280  and  _281
REMARK  104  A    between atoms: _290  and  _292
REMARK  105  A    between atoms: _292  and  _293
REMARK  106  A    between atoms: _292  and  _295
REMARK  107  A    between atoms: _295  and  _296
REMARK  108  A    between atoms: _301  and  _302
REMARK  109  A    between atoms: _304  and  _306
REMARK  110  A    between atoms: _306  and  _307
REMARK  111  A    between atoms: _306  and  _309
REMARK  112  A    between atoms: _309  and  _310
REMARK  113  A    between atoms: _313  and  _315
REMARK  114  A    between atoms: _315  and  _316
REMARK  115  A    between atoms: _315  and  _318
REMARK  116  A    between atoms: _318  and  _319
REMARK  117  A    between atoms: _329  and  _331
REMARK  118  A    between atoms: _331  and  _332
REMARK  119  A    between atoms: _331  and  _334
REMARK  120  A    between atoms: _334  and  _335
REMARK  121  A    between atoms: _340  and  _342
REMARK  122  A    between atoms: _342  and  _343
REMARK  123  A    between atoms: _342  and  _345
REMARK  124  A    between atoms: _345  and  _346
REMARK  125  A    between atoms: _350  and  ZN_449
REMARK  126  A    between atoms: _351  and  _353
REMARK  127  A    between atoms: _353  and  _354
REMARK  128  A    between atoms: _353  and  _356
REMARK  129  A    between atoms: _356  and  _357
REMARK  130  A    between atoms: _360  and  _362
REMARK  131  A    between atoms: _362  and  _363
REMARK  132  A    between atoms: _365  and  _367
REMARK  133  A    between atoms: _367  and  _368
REMARK  134  A    between atoms: _367  and  _370
REMARK  135  A    between atoms: _370  and  _371
REMARK  136  A    between atoms: _374  and  _376
REMARK  137  A    between atoms: _376  and  _377
REMARK  138  A    between atoms: _376  and  _379
REMARK  139  A    between atoms: _379  and  _380
REMARK  140  A    between atoms: _383  and  _385
REMARK  141  A    between atoms: _385  and  _386
REMARK  142  A    between atoms: _389  and  _391
REMARK  143  A    between atoms: _391  and  _392
REMARK  144  A    between atoms: _391  and  _394
REMARK  145  A    between atoms: _394  and  _395
REMARK  146  A    between atoms: _400  and  _401
REMARK  147  A    between atoms: _403  and  _405
REMARK  148  A    between atoms: _405  and  _406
REMARK  149  A    between atoms: _405  and  _408
REMARK  150  A    between atoms: _408  and  _409
REMARK  151  A    between atoms: _409  and  _410
REMARK  152  A    between atoms: _413  and  _415
REMARK  153  A    between atoms: _415  and  _416
REMARK  154  A    between atoms: _415  and  _418
REMARK  155  A    between atoms: _418  and  _419
REMARK  156  A    between atoms: _419  and  _420
REMARK  157  A    between atoms: _420  and  _421
REMARK  158  A    between atoms: _430  and  _432
REMARK  159  A    between atoms: _432  and  _433
REMARK  160  A    between atoms: _435  and  _437
REMARK  161  A    between atoms: _437  and  _438
REMARK  162  A    between atoms: _437  and  _440
REMARK  163  A    between atoms: _440  and  _441
REMARK  164  A    between atoms: _444  and  _446
REMARK  165  A    between atoms: _446  and  _447
REMARK                            x       y       z     vdW  Elec       q    Type
REMARK                         _______ _______ _______ _____ _____    ______ ____
ROOT
ATOM      1  O   HOH     1      30.183  72.737  12.388  0.00  0.00    +0.000 OA
ENDROOT
TORSDOF 0
REMARK  Name = ../refined-set-2016/3ddg/3ddg_pocket.pdb
REMARK  165 active torsions:
REMARK  status: ('A' for Active; 'I' for Inactive)
REMARK    1  A    between atoms: _1  and  _3
REMARK    2  A    between atoms: _3  and  _4
REMARK    3  A    between atoms: _3  and  _6
REMARK    4  A    between atoms: _6  and  _7
REMARK    5  A    between atoms: _12  and  _14
REMARK    6  A    between atoms: _25  and  _28
REMARK    7  A    between atoms: _28  and  _29
REMARK    8  A    between atoms: _36  and  _37
REMARK    9  A    between atoms: _44  and  _45
REMARK   10  A    between atoms: _50  and  _52
REMARK   11  A    between atoms: _52  and  _53
REMARK   12  A    between atoms: _55  and  _57
REMARK   13  A    between atoms: _57  and  _58
REMARK   14  A    between atoms: _57  and  _60
REMARK   15  A    between atoms: _60  and  _61
REMARK   16  A    between atoms: _71  and  _73
REMARK   17  A    between atoms: _73  and  _74
REMARK   18  A    between atoms: _73  and  _76
REMARK   19  A    between atoms: _76  and  _77
REMARK   20  A    between atoms: _80  and  _82
REMARK   21  A    between atoms: _82  and  _83
REMARK   22  A    between atoms: _82  and  _85
REMARK   23  A    between atoms: _85  and  _86
REMARK   24  A    between atoms: _91  and  _92
REMARK   25  A    between atoms: _94  and  _96
REMARK   26  A    between atoms: _96  and  _97
REMARK   27  A    between atoms: _96  and  _99
REMARK   28  A    between atoms: _99  and  _100
REMARK   29  A    between atoms: _100  and  _101
REMARK   30  A    between atoms: _104  and  _106
REMARK   31  A    between atoms: _106  and  _107
REMARK   32  A    between atoms: _106  and  _109
REMARK   33  A    between atoms: _109  and  _110
REMARK   34  A    between atoms: _110  and  _111
REMARK   35  A    between atoms: _113  and  _115
REMARK   36  A    between atoms: _115  and  _116
REMARK   37  A    between atoms: _115  and  _118
REMARK   38  A    between atoms: _118  and  _119
REMARK   39  A    between atoms: _122  and  _124
REMARK   40  A    between atoms: _124  and  _125
REMARK   41  A    between atoms: _124  and  _127
REMARK   42  A    between atoms: _127  and  _128
REMARK   43  A    between atoms: _128  and  _130
REMARK   44  A    between atoms: _130  and  ZN_449
REMARK   45  A    between atoms: _132  and  _133
REMARK   46  A    between atoms: _138  and  _140
REMARK   47  A    between atoms: _140  and  _141
REMARK   48  A    between atoms: _140  and  _143
REMARK   49  A    between atoms: _143  and  _144
REMARK   50  A    between atoms: _150  and  _152
REMARK   51  A    between atoms: _152  and  _153
REMARK   52  A    between atoms: _152  and  _155
REMARK   53  A    between atoms: _155  and  _156
REMARK   54  A    between atoms: _156  and  _157
REMARK   55  A    between atoms: _157  and  _158
REMARK   56  A    between atoms: _167  and  _169
REMARK   57  A    between atoms: _169  and  _170
REMARK   58  A    between atoms: _169  and  _172
REMARK   59  A    between atoms: _172  and  _173
REMARK   60  A    between atoms: _178  and  _179
REMARK   61  A    between atoms: _181  and  _183
REMARK   62  A    between atoms: _183  and  _184
REMARK   63  A    between atoms: _183  and  _186
REMARK   64  A    between atoms: _186  and  _187
REMARK   65  A    between atoms: _189  and  _191
REMARK   66  A    between atoms: _191  and  _192
REMARK   67  A    between atoms: _191  and  _194
REMARK   68  A    between atoms: _194  and  _195
REMARK   69  A    between atoms: _200  and  _201
REMARK   70  A    between atoms: _203  and  _205
REMARK   71  A    between atoms: _205  and  _206
REMARK   72  A    between atoms: _205  and  _208
REMARK   73  A    between atoms: _208  and  _209
REMARK   74  A    between atoms: _212  and  _214
REMARK   75  A    between atoms: _214  and  _215
REMARK   76  A    between atoms: _214  and  _217
REMARK   77  A    between atoms: _217  and  _218
REMARK   78  A    between atoms: _221  and  _223
REMARK   79  A    between atoms: _223  and  _224
REMARK   80  A    between atoms: _223  and  _226
REMARK   81  A    between atoms: _226  and  _227
REMARK   82  A    between atoms: _227  and  _228
REMARK   83  A    between atoms: _228  and  _229
REMARK   84  A    between atoms: _238  and  _240
REMARK   85  A    between atoms: _240  and  _241
REMARK   86  A    between atoms: _243  and  _245
REMARK   87  A    between atoms: _245  and  _246
REMARK   88  A    between atoms: _245  and  _248
REMARK   89  A    between atoms: _248  and  _249
REMARK   90  A    between atoms: _252  and  _254
REMARK   91  A    between atoms: _254  and  _255
REMARK   92  A    between atoms: _254  and  _257
REMARK   93  A    between atoms: _257  and  _258
REMARK   94  A    between atoms: _261  and  _263
REMARK   95  A    between atoms: _263  and  _264
REMARK   96  A    between atoms: _263  and  _266
REMARK   97  A    between atoms: _266  and  _267
REMARK   98  A    between atoms: _273  and  _275
REMARK   99  A    between atoms: _275  and  _276
REMARK  100  A    between atoms: _275  and  _278
REMARK  101  A    between atoms: _278  and  _279
REMARK  102  A    between atoms: _279  and  _280
REMARK  103  A    between atoms: _280  and  _281
REMARK  104  A    between atoms: _290  and  _292
REMARK  105  A    between atoms: _292  and  _293
REMARK  106  A    between atoms: _292  and  _295
REMARK  107  A    between atoms: _295  and  _296
REMARK  108  A    between atoms: _301  and  _302
REMARK  109  A    between atoms: _304  and  _306
REMARK  110  A    between atoms: _306  and  _307
REMARK  111  A    between atoms: _306  and  _309
REMARK  112  A    between atoms: _309  and  _310
REMARK  113  A    between atoms: _313  and  _315
REMARK  114  A    between atoms: _315  and  _316
REMARK  115  A    between atoms: _315  and  _318
REMARK  116  A    between atoms: _318  and  _319
REMARK  117  A    between atoms: _329  and  _331
REMARK  118  A    between atoms: _331  and  _332
REMARK  119  A    between atoms: _331  and  _334
REMARK  120  A    between atoms: _334  and  _335
REMARK  121  A    between atoms: _340  and  _342
REMARK  122  A    between atoms: _342  and  _343
REMARK  123  A    between atoms: _342  and  _345
REMARK  124  A    between atoms: _345  and  _346
REMARK  125  A    between atoms: _350  and  ZN_449
REMARK  126  A    between atoms: _351  and  _353
REMARK  127  A    between atoms: _353  and  _354
REMARK  128  A    between atoms: _353  and  _356
REMARK  129  A    between atoms: _356  and  _357
REMARK  130  A    between atoms: _360  and  _362
REMARK  131  A    between atoms: _362  and  _363
REMARK  132  A    between atoms: _365  and  _367
REMARK  133  A    between atoms: _367  and  _368
REMARK  134  A    between atoms: _367  and  _370
REMARK  135  A    between atoms: _370  and  _371
REMARK  136  A    between atoms: _374  and  _376
REMARK  137  A    between atoms: _376  and  _377
REMARK  138  A    between atoms: _376  and  _379
REMARK  139  A    between atoms: _379  and  _380
REMARK  140  A    between atoms: _383  and  _385
REMARK  141  A    between atoms: _385  and  _386
REMARK  142  A    between atoms: _389  and  _391
REMARK  143  A    between atoms: _391  and  _392
REMARK  144  A    between atoms: _391  and  _394
REMARK  145  A    between atoms: _394  and  _395
REMARK  146  A    between atoms: _400  and  _401
REMARK  147  A    between atoms: _403  and  _405
REMARK  148  A    between atoms: _405  and  _406
REMARK  149  A    between atoms: _405  and  _408
REMARK  150  A    between atoms: _408  and  _409
REMARK  151  A    between atoms: _409  and  _410
REMARK  152  A    between atoms: _413  and  _415
REMARK  153  A    between atoms: _415  and  _416
REMARK  154  A    between atoms: _415  and  _418
REMARK  155  A    between atoms: _418  and  _419
REMARK  156  A    between atoms: _419  and  _420
REMARK  157  A    between atoms: _420  and  _421
REMARK  158  A    between atoms: _430  and  _432
REMARK  159  A    between atoms: _432  and  _433
REMARK  160  A    between atoms: _435  and  _437
REMARK  161  A    between atoms: _437  and  _438
REMARK  162  A    between atoms: _437  and  _440
REMARK  163  A    between atoms: _440  and  _441
REMARK  164  A    between atoms: _444  and  _446
REMARK  165  A    between atoms: _446  and  _447
REMARK                            x       y       z     vdW  Elec       q    Type
REMARK                         _______ _______ _______ _____ _____    ______ ____
ROOT
ATOM      1  O   HOH     1      32.115  71.526  13.555  0.00  0.00    +0.000 OA
ENDROOT
TORSDOF 0
REMARK  Name = ../refined-set-2016/3ddg/3ddg_pocket.pdb
REMARK  165 active torsions:
REMARK  status: ('A' for Active; 'I' for Inactive)
REMARK    1  A    between atoms: _1  and  _3
REMARK    2  A    between atoms: _3  and  _4
REMARK    3  A    between atoms: _3  and  _6
REMARK    4  A    between atoms: _6  and  _7
REMARK    5  A    between atoms: _12  and  _14
REMARK    6  A    between atoms: _25  and  _28
REMARK    7  A    between atoms: _28  and  _29
REMARK    8  A    between atoms: _36  and  _37
REMARK    9  A    between atoms: _44  and  _45
REMARK   10  A    between atoms: _50  and  _52
REMARK   11  A    between atoms: _52  and  _53
REMARK   12  A    between atoms: _55  and  _57
REMARK   13  A    between atoms: _57  and  _58
REMARK   14  A    between atoms: _57  and  _60
REMARK   15  A    between atoms: _60  and  _61
REMARK   16  A    between atoms: _71  and  _73
REMARK   17  A    between atoms: _73  and  _74
REMARK   18  A    between atoms: _73  and  _76
REMARK   19  A    between atoms: _76  and  _77
REMARK   20  A    between atoms: _80  and  _82
REMARK   21  A    between atoms: _82  and  _83
REMARK   22  A    between atoms: _82  and  _85
REMARK   23  A    between atoms: _85  and  _86
REMARK   24  A    between atoms: _91  and  _92
REMARK   25  A    between atoms: _94  and  _96
REMARK   26  A    between atoms: _96  and  _97
REMARK   27  A    between atoms: _96  and  _99
REMARK   28  A    between atoms: _99  and  _100
REMARK   29  A    between atoms: _100  and  _101
REMARK   30  A    between atoms: _104  and  _106
REMARK   31  A    between atoms: _106  and  _107
REMARK   32  A    between atoms: _106  and  _109
REMARK   33  A    between atoms: _109  and  _110
REMARK   34  A    between atoms: _110  and  _111
REMARK   35  A    between atoms: _113  and  _115
REMARK   36  A    between atoms: _115  and  _116
REMARK   37  A    between atoms: _115  and  _118
REMARK   38  A    between atoms: _118  and  _119
REMARK   39  A    between atoms: _122  and  _124
REMARK   40  A    between atoms: _124  and  _125
REMARK   41  A    between atoms: _124  and  _127
REMARK   42  A    between atoms: _127  and  _128
REMARK   43  A    between atoms: _128  and  _130
REMARK   44  A    between atoms: _130  and  ZN_449
REMARK   45  A    between atoms: _132  and  _133
REMARK   46  A    between atoms: _138  and  _140
REMARK   47  A    between atoms: _140  and  _141
REMARK   48  A    between atoms: _140  and  _143
REMARK   49  A    between atoms: _143  and  _144
REMARK   50  A    between atoms: _150  and  _152
REMARK   51  A    between atoms: _152  and  _153
REMARK   52  A    between atoms: _152  and  _155
REMARK   53  A    between atoms: _155  and  _156
REMARK   54  A    between atoms: _156  and  _157
REMARK   55  A    between atoms: _157  and  _158
REMARK   56  A    between atoms: _167  and  _169
REMARK   57  A    between atoms: _169  and  _170
REMARK   58  A    between atoms: _169  and  _172
REMARK   59  A    between atoms: _172  and  _173
REMARK   60  A    between atoms: _178  and  _179
REMARK   61  A    between atoms: _181  and  _183
REMARK   62  A    between atoms: _183  and  _184
REMARK   63  A    between atoms: _183  and  _186
REMARK   64  A    between atoms: _186  and  _187
REMARK   65  A    between atoms: _189  and  _191
REMARK   66  A    between atoms: _191  and  _192
REMARK   67  A    between atoms: _191  and  _194
REMARK   68  A    between atoms: _194  and  _195
REMARK   69  A    between atoms: _200  and  _201
REMARK   70  A    between atoms: _203  and  _205
REMARK   71  A    between atoms: _205  and  _206
REMARK   72  A    between atoms: _205  and  _208
REMARK   73  A    between atoms: _208  and  _209
REMARK   74  A    between atoms: _212  and  _214
REMARK   75  A    between atoms: _214  and  _215
REMARK   76  A    between atoms: _214  and  _217
REMARK   77  A    between atoms: _217  and  _218
REMARK   78  A    between atoms: _221  and  _223
REMARK   79  A    between atoms: _223  and  _224
REMARK   80  A    between atoms: _223  and  _226
REMARK   81  A    between atoms: _226  and  _227
REMARK   82  A    between atoms: _227  and  _228
REMARK   83  A    between atoms: _228  and  _229
REMARK   84  A    between atoms: _238  and  _240
REMARK   85  A    between atoms: _240  and  _241
REMARK   86  A    between atoms: _243  and  _245
REMARK   87  A    between atoms: _245  and  _246
REMARK   88  A    between atoms: _245  and  _248
REMARK   89  A    between atoms: _248  and  _249
REMARK   90  A    between atoms: _252  and  _254
REMARK   91  A    between atoms: _254  and  _255
REMARK   92  A    between atoms: _254  and  _257
REMARK   93  A    between atoms: _257  and  _258
REMARK   94  A    between atoms: _261  and  _263
REMARK   95  A    between atoms: _263  and  _264
REMARK   96  A    between atoms: _263  and  _266
REMARK   97  A    between atoms: _266  and  _267
REMARK   98  A    between atoms: _273  and  _275
REMARK   99  A    between atoms: _275  and  _276
REMARK  100  A    between atoms: _275  and  _278
REMARK  101  A    between atoms: _278  and  _279
REMARK  102  A    between atoms: _279  and  _280
REMARK  103  A    between atoms: _280  and  _281
REMARK  104  A    between atoms: _290  and  _292
REMARK  105  A    between atoms: _292  and  _293
REMARK  106  A    between atoms: _292  and  _295
REMARK  107  A    between atoms: _295  and  _296
REMARK  108  A    between atoms: _301  and  _302
REMARK  109  A    between atoms: _304  and  _306
REMARK  110  A    between atoms: _306  and  _307
REMARK  111  A    between atoms: _306  and  _309
REMARK  112  A    between atoms: _309  and  _310
REMARK  113  A    between atoms: _313  and  _315
REMARK  114  A    between atoms: _315  and  _316
REMARK  115  A    between atoms: _315  and  _318
REMARK  116  A    between atoms: _318  and  _319
REMARK  117  A    between atoms: _329  and  _331
REMARK  118  A    between atoms: _331  and  _332
REMARK  119  A    between atoms: _331  and  _334
REMARK  120  A    between atoms: _334  and  _335
REMARK  121  A    between atoms: _340  and  _342
REMARK  122  A    between atoms: _342  and  _343
REMARK  123  A    between atoms: _342  and  _345
REMARK  124  A    between atoms: _345  and  _346
REMARK  125  A    between atoms: _350  and  ZN_449
REMARK  126  A    between atoms: _351  and  _353
REMARK  127  A    between atoms: _353  and  _354
REMARK  128  A    between atoms: _353  and  _356
REMARK  129  A    between atoms: _356  and  _357
REMARK  130  A    between atoms: _360  and  _362
REMARK  131  A    between atoms: _362  and  _363
REMARK  132  A    between atoms: _365  and  _367
REMARK  133  A    between atoms: _367  and  _368
REMARK  134  A    between atoms: _367  and  _370
REMARK  135  A    between atoms: _370  and  _371
REMARK  136  A    between atoms: _374  and  _376
REMARK  137  A    between atoms: _376  and  _377
REMARK  138  A    between atoms: _376  and  _379
REMARK  139  A    between atoms: _379  and  _380
REMARK  140  A    between atoms: _383  and  _385
REMARK  141  A    between atoms: _385  and  _386
REMARK  142  A    between atoms: _389  and  _391
REMARK  143  A    between atoms: _391  and  _392
REMARK  144  A    between atoms: _391  and  _394
REMARK  145  A    between atoms: _394  and  _395
REMARK  146  A    between atoms: _400  and  _401
REMARK  147  A    between atoms: _403  and  _405
REMARK  148  A    between atoms: _405  and  _406
REMARK  149  A    between atoms: _405  and  _408
REMARK  150  A    between atoms: _408  and  _409
REMARK  151  A    between atoms: _409  and  _410
REMARK  152  A    between atoms: _413  and  _415
REMARK  153  A    between atoms: _415  and  _416
REMARK  154  A    between atoms: _415  and  _418
REMARK  155  A    between atoms: _418  and  _419
REMARK  156  A    between atoms: _419  and  _420
REMARK  157  A    between atoms: _420  and  _421
REMARK  158  A    between atoms: _430  and  _432
REMARK  159  A    between atoms: _432  and  _433
REMARK  160  A    between atoms: _435  and  _437
REMARK  161  A    between atoms: _437  and  _438
REMARK  162  A    between atoms: _437  and  _440
REMARK  163  A    between atoms: _440  and  _441
REMARK  164  A    between atoms: _444  and  _446
REMARK  165  A    between atoms: _446  and  _447
REMARK                            x       y       z     vdW  Elec       q    Type
REMARK                         _______ _______ _______ _____ _____    ______ ____
ROOT
ATOM      1  O   HOH     1      34.819  70.513  13.043  0.00  0.00    +0.000 OA
ENDROOT
TORSDOF 0
REMARK  Name = ../refined-set-2016/3ddg/3ddg_pocket.pdb
REMARK  165 active torsions:
REMARK  status: ('A' for Active; 'I' for Inactive)
REMARK    1  A    between atoms: _1  and  _3
REMARK    2  A    between atoms: _3  and  _4
REMARK    3  A    between atoms: _3  and  _6
REMARK    4  A    between atoms: _6  and  _7
REMARK    5  A    between atoms: _12  and  _14
REMARK    6  A    between atoms: _25  and  _28
REMARK    7  A    between atoms: _28  and  _29
REMARK    8  A    between atoms: _36  and  _37
REMARK    9  A    between atoms: _44  and  _45
REMARK   10  A    between atoms: _50  and  _52
REMARK   11  A    between atoms: _52  and  _53
REMARK   12  A    between atoms: _55  and  _57
REMARK   13  A    between atoms: _57  and  _58
REMARK   14  A    between atoms: _57  and  _60
REMARK   15  A    between atoms: _60  and  _61
REMARK   16  A    between atoms: _71  and  _73
REMARK   17  A    between atoms: _73  and  _74
REMARK   18  A    between atoms: _73  and  _76
REMARK   19  A    between atoms: _76  and  _77
REMARK   20  A    between atoms: _80  and  _82
REMARK   21  A    between atoms: _82  and  _83
REMARK   22  A    between atoms: _82  and  _85
REMARK   23  A    between atoms: _85  and  _86
REMARK   24  A    between atoms: _91  and  _92
REMARK   25  A    between atoms: _94  and  _96
REMARK   26  A    between atoms: _96  and  _97
REMARK   27  A    between atoms: _96  and  _99
REMARK   28  A    between atoms: _99  and  _100
REMARK   29  A    between atoms: _100  and  _101
REMARK   30  A    between atoms: _104  and  _106
REMARK   31  A    between atoms: _106  and  _107
REMARK   32  A    between atoms: _106  and  _109
REMARK   33  A    between atoms: _109  and  _110
REMARK   34  A    between atoms: _110  and  _111
REMARK   35  A    between atoms: _113  and  _115
REMARK   36  A    between atoms: _115  and  _116
REMARK   37  A    between atoms: _115  and  _118
REMARK   38  A    between atoms: _118  and  _119
REMARK   39  A    between atoms: _122  and  _124
REMARK   40  A    between atoms: _124  and  _125
REMARK   41  A    between atoms: _124  and  _127
REMARK   42  A    between atoms: _127  and  _128
REMARK   43  A    between atoms: _128  and  _130
REMARK   44  A    between atoms: _130  and  ZN_449
REMARK   45  A    between atoms: _132  and  _133
REMARK   46  A    between atoms: _138  and  _140
REMARK   47  A    between atoms: _140  and  _141
REMARK   48  A    between atoms: _140  and  _143
REMARK   49  A    between atoms: _143  and  _144
REMARK   50  A    between atoms: _150  and  _152
REMARK   51  A    between atoms: _152  and  _153
REMARK   52  A    between atoms: _152  and  _155
REMARK   53  A    between atoms: _155  and  _156
REMARK   54  A    between atoms: _156  and  _157
REMARK   55  A    between atoms: _157  and  _158
REMARK   56  A    between atoms: _167  and  _169
REMARK   57  A    between atoms: _169  and  _170
REMARK   58  A    between atoms: _169  and  _172
REMARK   59  A    between atoms: _172  and  _173
REMARK   60  A    between atoms: _178  and  _179
REMARK   61  A    between atoms: _181  and  _183
REMARK   62  A    between atoms: _183  and  _184
REMARK   63  A    between atoms: _183  and  _186
REMARK   64  A    between atoms: _186  and  _187
REMARK   65  A    between atoms: _189  and  _191
REMARK   66  A    between atoms: _191  and  _192
REMARK   67  A    between atoms: _191  and  _194
REMARK   68  A    between atoms: _194  and  _195
REMARK   69  A    between atoms: _200  and  _201
REMARK   70  A    between atoms: _203  and  _205
REMARK   71  A    between atoms: _205  and  _206
REMARK   72  A    between atoms: _205  and  _208
REMARK   73  A    between atoms: _208  and  _209
REMARK   74  A    between atoms: _212  and  _214
REMARK   75  A    between atoms: _214  and  _215
REMARK   76  A    between atoms: _214  and  _217
REMARK   77  A    between atoms: _217  and  _218
REMARK   78  A    between atoms: _221  and  _223
REMARK   79  A    between atoms: _223  and  _224
REMARK   80  A    between atoms: _223  and  _226
REMARK   81  A    between atoms: _226  and  _227
REMARK   82  A    between atoms: _227  and  _228
REMARK   83  A    between atoms: _228  and  _229
REMARK   84  A    between atoms: _238  and  _240
REMARK   85  A    between atoms: _240  and  _241
REMARK   86  A    between atoms: _243  and  _245
REMARK   87  A    between atoms: _245  and  _246
REMARK   88  A    between atoms: _245  and  _248
REMARK   89  A    between atoms: _248  and  _249
REMARK   90  A    between atoms: _252  and  _254
REMARK   91  A    between atoms: _254  and  _255
REMARK   92  A    between atoms: _254  and  _257
REMARK   93  A    between atoms: _257  and  _258
REMARK   94  A    between atoms: _261  and  _263
REMARK   95  A    between atoms: _263  and  _264
REMARK   96  A    between atoms: _263  and  _266
REMARK   97  A    between atoms: _266  and  _267
REMARK   98  A    between atoms: _273  and  _275
REMARK   99  A    between atoms: _275  and  _276
REMARK  100  A    between atoms: _275  and  _278
REMARK  101  A    between atoms: _278  and  _279
REMARK  102  A    between atoms: _279  and  _280
REMARK  103  A    between atoms: _280  and  _281
REMARK  104  A    between atoms: _290  and  _292
REMARK  105  A    between atoms: _292  and  _293
REMARK  106  A    between atoms: _292  and  _295
REMARK  107  A    between atoms: _295  and  _296
REMARK  108  A    between atoms: _301  and  _302
REMARK  109  A    between atoms: _304  and  _306
REMARK  110  A    between atoms: _306  and  _307
REMARK  111  A    between atoms: _306  and  _309
REMARK  112  A    between atoms: _309  and  _310
REMARK  113  A    between atoms: _313  and  _315
REMARK  114  A    between atoms: _315  and  _316
REMARK  115  A    between atoms: _315  and  _318
REMARK  116  A    between atoms: _318  and  _319
REMARK  117  A    between atoms: _329  and  _331
REMARK  118  A    between atoms: _331  and  _332
REMARK  119  A    between atoms: _331  and  _334
REMARK  120  A    between atoms: _334  and  _335
REMARK  121  A    between atoms: _340  and  _342
REMARK  122  A    between atoms: _342  and  _343
REMARK  123  A    between atoms: _342  and  _345
REMARK  124  A    between atoms: _345  and  _346
REMARK  125  A    between atoms: _350  and  ZN_449
REMARK  126  A    between atoms: _351  and  _353
REMARK  127  A    between atoms: _353  and  _354
REMARK  128  A    between atoms: _353  and  _356
REMARK  129  A    between atoms: _356  and  _357
REMARK  130  A    between atoms: _360  and  _362
REMARK  131  A    between atoms: _362  and  _363
REMARK  132  A    between atoms: _365  and  _367
REMARK  133  A    between atoms: _367  and  _368
REMARK  134  A    between atoms: _367  and  _370
REMARK  135  A    between atoms: _370  and  _371
REMARK  136  A    between atoms: _374  and  _376
REMARK  137  A    between atoms: _376  and  _377
REMARK  138  A    between atoms: _376  and  _379
REMARK  139  A    between atoms: _379  and  _380
REMARK  140  A    between atoms: _383  and  _385
REMARK  141  A    between atoms: _385  and  _386
REMARK  142  A    between atoms: _389  and  _391
REMARK  143  A    between atoms: _391  and  _392
REMARK  144  A    between atoms: _391  and  _394
REMARK  145  A    between atoms: _394  and  _395
REMARK  146  A    between atoms: _400  and  _401
REMARK  147  A    between atoms: _403  and  _405
REMARK  148  A    between atoms: _405  and  _406
REMARK  149  A    between atoms: _405  and  _408
REMARK  150  A    between atoms: _408  and  _409
REMARK  151  A    between atoms: _409  and  _410
REMARK  152  A    between atoms: _413  and  _415
REMARK  153  A    between atoms: _415  and  _416
REMARK  154  A    between atoms: _415  and  _418
REMARK  155  A    between atoms: _418  and  _419
REMARK  156  A    between atoms: _419  and  _420
REMARK  157  A    between atoms: _420  and  _421
REMARK  158  A    between atoms: _430  and  _432
REMARK  159  A    between atoms: _432  and  _433
REMARK  160  A    between atoms: _435  and  _437
REMARK  161  A    between atoms: _437  and  _438
REMARK  162  A    between atoms: _437  and  _440
REMARK  163  A    between atoms: _440  and  _441
REMARK  164  A    between atoms: _444  and  _446
REMARK  165  A    between atoms: _446  and  _447
REMARK                            x       y       z     vdW  Elec       q    Type
REMARK                         _______ _______ _______ _____ _____    ______ ____
ROOT
ATOM      1  O   HOH     1      34.442  67.935  12.438  0.00  0.00    +0.000 OA
ENDROOT
TORSDOF 0
REMARK  Name = ../refined-set-2016/3ddg/3ddg_pocket.pdb
REMARK  165 active torsions:
REMARK  status: ('A' for Active; 'I' for Inactive)
REMARK    1  A    between atoms: _1  and  _3
REMARK    2  A    between atoms: _3  and  _4
REMARK    3  A    between atoms: _3  and  _6
REMARK    4  A    between atoms: _6  and  _7
REMARK    5  A    between atoms: _12  and  _14
REMARK    6  A    between atoms: _25  and  _28
REMARK    7  A    between atoms: _28  and  _29
REMARK    8  A    between atoms: _36  and  _37
REMARK    9  A    between atoms: _44  and  _45
REMARK   10  A    between atoms: _50  and  _52
REMARK   11  A    between atoms: _52  and  _53
REMARK   12  A    between atoms: _55  and  _57
REMARK   13  A    between atoms: _57  and  _58
REMARK   14  A    between atoms: _57  and  _60
REMARK   15  A    between atoms: _60  and  _61
REMARK   16  A    between atoms: _71  and  _73
REMARK   17  A    between atoms: _73  and  _74
REMARK   18  A    between atoms: _73  and  _76
REMARK   19  A    between atoms: _76  and  _77
REMARK   20  A    between atoms: _80  and  _82
REMARK   21  A    between atoms: _82  and  _83
REMARK   22  A    between atoms: _82  and  _85
REMARK   23  A    between atoms: _85  and  _86
REMARK   24  A    between atoms: _91  and  _92
REMARK   25  A    between atoms: _94  and  _96
REMARK   26  A    between atoms: _96  and  _97
REMARK   27  A    between atoms: _96  and  _99
REMARK   28  A    between atoms: _99  and  _100
REMARK   29  A    between atoms: _100  and  _101
REMARK   30  A    between atoms: _104  and  _106
REMARK   31  A    between atoms: _106  and  _107
REMARK   32  A    between atoms: _106  and  _109
REMARK   33  A    between atoms: _109  and  _110
REMARK   34  A    between atoms: _110  and  _111
REMARK   35  A    between atoms: _113  and  _115
REMARK   36  A    between atoms: _115  and  _116
REMARK   37  A    between atoms: _115  and  _118
REMARK   38  A    between atoms: _118  and  _119
REMARK   39  A    between atoms: _122  and  _124
REMARK   40  A    between atoms: _124  and  _125
REMARK   41  A    between atoms: _124  and  _127
REMARK   42  A    between atoms: _127  and  _128
REMARK   43  A    between atoms: _128  and  _130
REMARK   44  A    between atoms: _130  and  ZN_449
REMARK   45  A    between atoms: _132  and  _133
REMARK   46  A    between atoms: _138  and  _140
REMARK   47  A    between atoms: _140  and  _141
REMARK   48  A    between atoms: _140  and  _143
REMARK   49  A    between atoms: _143  and  _144
REMARK   50  A    between atoms: _150  and  _152
REMARK   51  A    between atoms: _152  and  _153
REMARK   52  A    between atoms: _152  and  _155
REMARK   53  A    between atoms: _155  and  _156
REMARK   54  A    between atoms: _156  and  _157
REMARK   55  A    between atoms: _157  and  _158
REMARK   56  A    between atoms: _167  and  _169
REMARK   57  A    between atoms: _169  and  _170
REMARK   58  A    between atoms: _169  and  _172
REMARK   59  A    between atoms: _172  and  _173
REMARK   60  A    between atoms: _178  and  _179
REMARK   61  A    between atoms: _181  and  _183
REMARK   62  A    between atoms: _183  and  _184
REMARK   63  A    between atoms: _183  and  _186
REMARK   64  A    between atoms: _186  and  _187
REMARK   65  A    between atoms: _189  and  _191
REMARK   66  A    between atoms: _191  and  _192
REMARK   67  A    between atoms: _191  and  _194
REMARK   68  A    between atoms: _194  and  _195
REMARK   69  A    between atoms: _200  and  _201
REMARK   70  A    between atoms: _203  and  _205
REMARK   71  A    between atoms: _205  and  _206
REMARK   72  A    between atoms: _205  and  _208
REMARK   73  A    between atoms: _208  and  _209
REMARK   74  A    between atoms: _212  and  _214
REMARK   75  A    between atoms: _214  and  _215
REMARK   76  A    between atoms: _214  and  _217
REMARK   77  A    between atoms: _217  and  _218
REMARK   78  A    between atoms: _221  and  _223
REMARK   79  A    between atoms: _223  and  _224
REMARK   80  A    between atoms: _223  and  _226
REMARK   81  A    between atoms: _226  and  _227
REMARK   82  A    between atoms: _227  and  _228
REMARK   83  A    between atoms: _228  and  _229
REMARK   84  A    between atoms: _238  and  _240
REMARK   85  A    between atoms: _240  and  _241
REMARK   86  A    between atoms: _243  and  _245
REMARK   87  A    between atoms: _245  and  _246
REMARK   88  A    between atoms: _245  and  _248
REMARK   89  A    between atoms: _248  and  _249
REMARK   90  A    between atoms: _252  and  _254
REMARK   91  A    between atoms: _254  and  _255
REMARK   92  A    between atoms: _254  and  _257
REMARK   93  A    between atoms: _257  and  _258
REMARK   94  A    between atoms: _261  and  _263
REMARK   95  A    between atoms: _263  and  _264
REMARK   96  A    between atoms: _263  and  _266
REMARK   97  A    between atoms: _266  and  _267
REMARK   98  A    between atoms: _273  and  _275
REMARK   99  A    between atoms: _275  and  _276
REMARK  100  A    between atoms: _275  and  _278
REMARK  101  A    between atoms: _278  and  _279
REMARK  102  A    between atoms: _279  and  _280
REMARK  103  A    between atoms: _280  and  _281
REMARK  104  A    between atoms: _290  and  _292
REMARK  105  A    between atoms: _292  and  _293
REMARK  106  A    between atoms: _292  and  _295
REMARK  107  A    between atoms: _295  and  _296
REMARK  108  A    between atoms: _301  and  _302
REMARK  109  A    between atoms: _304  and  _306
REMARK  110  A    between atoms: _306  and  _307
REMARK  111  A    between atoms: _306  and  _309
REMARK  112  A    between atoms: _309  and  _310
REMARK  113  A    between atoms: _313  and  _315
REMARK  114  A    between atoms: _315  and  _316
REMARK  115  A    between atoms: _315  and  _318
REMARK  116  A    between atoms: _318  and  _319
REMARK  117  A    between atoms: _329  and  _331
REMARK  118  A    between atoms: _331  and  _332
REMARK  119  A    between atoms: _331  and  _334
REMARK  120  A    between atoms: _334  and  _335
REMARK  121  A    between atoms: _340  and  _342
REMARK  122  A    between atoms: _342  and  _343
REMARK  123  A    between atoms: _342  and  _345
REMARK  124  A    between atoms: _345  and  _346
REMARK  125  A    between atoms: _350  and  ZN_449
REMARK  126  A    between atoms: _351  and  _353
REMARK  127  A    between atoms: _353  and  _354
REMARK  128  A    between atoms: _353  and  _356
REMARK  129  A    between atoms: _356  and  _357
REMARK  130  A    between atoms: _360  and  _362
REMARK  131  A    between atoms: _362  and  _363
REMARK  132  A    between atoms: _365  and  _367
REMARK  133  A    between atoms: _367  and  _368
REMARK  134  A    between atoms: _367  and  _370
REMARK  135  A    between atoms: _370  and  _371
REMARK  136  A    between atoms: _374  and  _376
REMARK  137  A    between atoms: _376  and  _377
REMARK  138  A    between atoms: _376  and  _379
REMARK  139  A    between atoms: _379  and  _380
REMARK  140  A    between atoms: _383  and  _385
REMARK  141  A    between atoms: _385  and  _386
REMARK  142  A    between atoms: _389  and  _391
REMARK  143  A    between atoms: _391  and  _392
REMARK  144  A    between atoms: _391  and  _394
REMARK  145  A    between atoms: _394  and  _395
REMARK  146  A    between atoms: _400  and  _401
REMARK  147  A    between atoms: _403  and  _405
REMARK  148  A    between atoms: _405  and  _406
REMARK  149  A    between atoms: _405  and  _408
REMARK  150  A    between atoms: _408  and  _409
REMARK  151  A    between atoms: _409  and  _410
REMARK  152  A    between atoms: _413  and  _415
REMARK  153  A    between atoms: _415  and  _416
REMARK  154  A    between atoms: _415  and  _418
REMARK  155  A    between atoms: _418  and  _419
REMARK  156  A    between atoms: _419  and  _420
REMARK  157  A    between atoms: _420  and  _421
REMARK  158  A    between atoms: _430  and  _432
REMARK  159  A    between atoms: _432  and  _433
REMARK  160  A    between atoms: _435  and  _437
REMARK  161  A    between atoms: _437  and  _438
REMARK  162  A    between atoms: _437  and  _440
REMARK  163  A    between atoms: _440  and  _441
REMARK  164  A    between atoms: _444  and  _446
REMARK  165  A    between atoms: _446  and  _447
REMARK                            x       y       z     vdW  Elec       q    Type
REMARK                         _______ _______ _______ _____ _____    ______ ____
ROOT
ATOM      1  O   HOH     1      35.153  71.277  15.604  0.00  0.00    +0.000 OA
ENDROOT
TORSDOF 0
REMARK  Name = ../refined-set-2016/3ddg/3ddg_pocket.pdb
REMARK  165 active torsions:
REMARK  status: ('A' for Active; 'I' for Inactive)
REMARK    1  A    between atoms: _1  and  _3
REMARK    2  A    between atoms: _3  and  _4
REMARK    3  A    between atoms: _3  and  _6
REMARK    4  A    between atoms: _6  and  _7
REMARK    5  A    between atoms: _12  and  _14
REMARK    6  A    between atoms: _25  and  _28
REMARK    7  A    between atoms: _28  and  _29
REMARK    8  A    between atoms: _36  and  _37
REMARK    9  A    between atoms: _44  and  _45
REMARK   10  A    between atoms: _50  and  _52
REMARK   11  A    between atoms: _52  and  _53
REMARK   12  A    between atoms: _55  and  _57
REMARK   13  A    between atoms: _57  and  _58
REMARK   14  A    between atoms: _57  and  _60
REMARK   15  A    between atoms: _60  and  _61
REMARK   16  A    between atoms: _71  and  _73
REMARK   17  A    between atoms: _73  and  _74
REMARK   18  A    between atoms: _73  and  _76
REMARK   19  A    between atoms: _76  and  _77
REMARK   20  A    between atoms: _80  and  _82
REMARK   21  A    between atoms: _82  and  _83
REMARK   22  A    between atoms: _82  and  _85
REMARK   23  A    between atoms: _85  and  _86
REMARK   24  A    between atoms: _91  and  _92
REMARK   25  A    between atoms: _94  and  _96
REMARK   26  A    between atoms: _96  and  _97
REMARK   27  A    between atoms: _96  and  _99
REMARK   28  A    between atoms: _99  and  _100
REMARK   29  A    between atoms: _100  and  _101
REMARK   30  A    between atoms: _104  and  _106
REMARK   31  A    between atoms: _106  and  _107
REMARK   32  A    between atoms: _106  and  _109
REMARK   33  A    between atoms: _109  and  _110
REMARK   34  A    between atoms: _110  and  _111
REMARK   35  A    between atoms: _113  and  _115
REMARK   36  A    between atoms: _115  and  _116
REMARK   37  A    between atoms: _115  and  _118
REMARK   38  A    between atoms: _118  and  _119
REMARK   39  A    between atoms: _122  and  _124
REMARK   40  A    between atoms: _124  and  _125
REMARK   41  A    between atoms: _124  and  _127
REMARK   42  A    between atoms: _127  and  _128
REMARK   43  A    between atoms: _128  and  _130
REMARK   44  A    between atoms: _130  and  ZN_449
REMARK   45  A    between atoms: _132  and  _133
REMARK   46  A    between atoms: _138  and  _140
REMARK   47  A    between atoms: _140  and  _141
REMARK   48  A    between atoms: _140  and  _143
REMARK   49  A    between atoms: _143  and  _144
REMARK   50  A    between atoms: _150  and  _152
REMARK   51  A    between atoms: _152  and  _153
REMARK   52  A    between atoms: _152  and  _155
REMARK   53  A    between atoms: _155  and  _156
REMARK   54  A    between atoms: _156  and  _157
REMARK   55  A    between atoms: _157  and  _158
REMARK   56  A    between atoms: _167  and  _169
REMARK   57  A    between atoms: _169  and  _170
REMARK   58  A    between atoms: _169  and  _172
REMARK   59  A    between atoms: _172  and  _173
REMARK   60  A    between atoms: _178  and  _179
REMARK   61  A    between atoms: _181  and  _183
REMARK   62  A    between atoms: _183  and  _184
REMARK   63  A    between atoms: _183  and  _186
REMARK   64  A    between atoms: _186  and  _187
REMARK   65  A    between atoms: _189  and  _191
REMARK   66  A    between atoms: _191  and  _192
REMARK   67  A    between atoms: _191  and  _194
REMARK   68  A    between atoms: _194  and  _195
REMARK   69  A    between atoms: _200  and  _201
REMARK   70  A    between atoms: _203  and  _205
REMARK   71  A    between atoms: _205  and  _206
REMARK   72  A    between atoms: _205  and  _208
REMARK   73  A    between atoms: _208  and  _209
REMARK   74  A    between atoms: _212  and  _214
REMARK   75  A    between atoms: _214  and  _215
REMARK   76  A    between atoms: _214  and  _217
REMARK   77  A    between atoms: _217  and  _218
REMARK   78  A    between atoms: _221  and  _223
REMARK   79  A    between atoms: _223  and  _224
REMARK   80  A    between atoms: _223  and  _226
REMARK   81  A    between atoms: _226  and  _227
REMARK   82  A    between atoms: _227  and  _228
REMARK   83  A    between atoms: _228  and  _229
REMARK   84  A    between atoms: _238  and  _240
REMARK   85  A    between atoms: _240  and  _241
REMARK   86  A    between atoms: _243  and  _245
REMARK   87  A    between atoms: _245  and  _246
REMARK   88  A    between atoms: _245  and  _248
REMARK   89  A    between atoms: _248  and  _249
REMARK   90  A    between atoms: _252  and  _254
REMARK   91  A    between atoms: _254  and  _255
REMARK   92  A    between atoms: _254  and  _257
REMARK   93  A    between atoms: _257  and  _258
REMARK   94  A    between atoms: _261  and  _263
REMARK   95  A    between atoms: _263  and  _264
REMARK   96  A    between atoms: _263  and  _266
REMARK   97  A    between atoms: _266  and  _267
REMARK   98  A    between atoms: _273  and  _275
REMARK   99  A    between atoms: _275  and  _276
REMARK  100  A    between atoms: _275  and  _278
REMARK  101  A    between atoms: _278  and  _279
REMARK  102  A    between atoms: _279  and  _280
REMARK  103  A    between atoms: _280  and  _281
REMARK  104  A    between atoms: _290  and  _292
REMARK  105  A    between atoms: _292  and  _293
REMARK  106  A    between atoms: _292  and  _295
REMARK  107  A    between atoms: _295  and  _296
REMARK  108  A    between atoms: _301  and  _302
REMARK  109  A    between atoms: _304  and  _306
REMARK  110  A    between atoms: _306  and  _307
REMARK  111  A    between atoms: _306  and  _309
REMARK  112  A    between atoms: _309  and  _310
REMARK  113  A    between atoms: _313  and  _315
REMARK  114  A    between atoms: _315  and  _316
REMARK  115  A    between atoms: _315  and  _318
REMARK  116  A    between atoms: _318  and  _319
REMARK  117  A    between atoms: _329  and  _331
REMARK  118  A    between atoms: _331  and  _332
REMARK  119  A    between atoms: _331  and  _334
REMARK  120  A    between atoms: _334  and  _335
REMARK  121  A    between atoms: _340  and  _342
REMARK  122  A    between atoms: _342  and  _343
REMARK  123  A    between atoms: _342  and  _345
REMARK  124  A    between atoms: _345  and  _346
REMARK  125  A    between atoms: _350  and  ZN_449
REMARK  126  A    between atoms: _351  and  _353
REMARK  127  A    between atoms: _353  and  _354
REMARK  128  A    between atoms: _353  and  _356
REMARK  129  A    between atoms: _356  and  _357
REMARK  130  A    between atoms: _360  and  _362
REMARK  131  A    between atoms: _362  and  _363
REMARK  132  A    between atoms: _365  and  _367
REMARK  133  A    between atoms: _367  and  _368
REMARK  134  A    between atoms: _367  and  _370
REMARK  135  A    between atoms: _370  and  _371
REMARK  136  A    between atoms: _374  and  _376
REMARK  137  A    between atoms: _376  and  _377
REMARK  138  A    between atoms: _376  and  _379
REMARK  139  A    between atoms: _379  and  _380
REMARK  140  A    between atoms: _383  and  _385
REMARK  141  A    between atoms: _385  and  _386
REMARK  142  A    between atoms: _389  and  _391
REMARK  143  A    between atoms: _391  and  _392
REMARK  144  A    between atoms: _391  and  _394
REMARK  145  A    between atoms: _394  and  _395
REMARK  146  A    between atoms: _400  and  _401
REMARK  147  A    between atoms: _403  and  _405
REMARK  148  A    between atoms: _405  and  _406
REMARK  149  A    between atoms: _405  and  _408
REMARK  150  A    between atoms: _408  and  _409
REMARK  151  A    between atoms: _409  and  _410
REMARK  152  A    between atoms: _413  and  _415
REMARK  153  A    between atoms: _415  and  _416
REMARK  154  A    between atoms: _415  and  _418
REMARK  155  A    between atoms: _418  and  _419
REMARK  156  A    between atoms: _419  and  _420
REMARK  157  A    between atoms: _420  and  _421
REMARK  158  A    between atoms: _430  and  _432
REMARK  159  A    between atoms: _432  and  _433
REMARK  160  A    between atoms: _435  and  _437
REMARK  161  A    between atoms: _437  and  _438
REMARK  162  A    between atoms: _437  and  _440
REMARK  163  A    between atoms: _440  and  _441
REMARK  164  A    between atoms: _444  and  _446
REMARK  165  A    between atoms: _446  and  _447
REMARK                            x       y       z     vdW  Elec       q    Type
REMARK                         _______ _______ _______ _____ _____    ______ ____
ROOT
ATOM      1  O   HOH     1      33.146  62.926   0.064  0.00  0.00    +0.000 OA
ENDROOT
TORSDOF 0
REMARK  Name = ../refined-set-2016/3ddg/3ddg_pocket.pdb
REMARK  165 active torsions:
REMARK  status: ('A' for Active; 'I' for Inactive)
REMARK    1  A    between atoms: _1  and  _3
REMARK    2  A    between atoms: _3  and  _4
REMARK    3  A    between atoms: _3  and  _6
REMARK    4  A    between atoms: _6  and  _7
REMARK    5  A    between atoms: _12  and  _14
REMARK    6  A    between atoms: _25  and  _28
REMARK    7  A    between atoms: _28  and  _29
REMARK    8  A    between atoms: _36  and  _37
REMARK    9  A    between atoms: _44  and  _45
REMARK   10  A    between atoms: _50  and  _52
REMARK   11  A    between atoms: _52  and  _53
REMARK   12  A    between atoms: _55  and  _57
REMARK   13  A    between atoms: _57  and  _58
REMARK   14  A    between atoms: _57  and  _60
REMARK   15  A    between atoms: _60  and  _61
REMARK   16  A    between atoms: _71  and  _73
REMARK   17  A    between atoms: _73  and  _74
REMARK   18  A    between atoms: _73  and  _76
REMARK   19  A    between atoms: _76  and  _77
REMARK   20  A    between atoms: _80  and  _82
REMARK   21  A    between atoms: _82  and  _83
REMARK   22  A    between atoms: _82  and  _85
REMARK   23  A    between atoms: _85  and  _86
REMARK   24  A    between atoms: _91  and  _92
REMARK   25  A    between atoms: _94  and  _96
REMARK   26  A    between atoms: _96  and  _97
REMARK   27  A    between atoms: _96  and  _99
REMARK   28  A    between atoms: _99  and  _100
REMARK   29  A    between atoms: _100  and  _101
REMARK   30  A    between atoms: _104  and  _106
REMARK   31  A    between atoms: _106  and  _107
REMARK   32  A    between atoms: _106  and  _109
REMARK   33  A    between atoms: _109  and  _110
REMARK   34  A    between atoms: _110  and  _111
REMARK   35  A    between atoms: _113  and  _115
REMARK   36  A    between atoms: _115  and  _116
REMARK   37  A    between atoms: _115  and  _118
REMARK   38  A    between atoms: _118  and  _119
REMARK   39  A    between atoms: _122  and  _124
REMARK   40  A    between atoms: _124  and  _125
REMARK   41  A    between atoms: _124  and  _127
REMARK   42  A    between atoms: _127  and  _128
REMARK   43  A    between atoms: _128  and  _130
REMARK   44  A    between atoms: _130  and  ZN_449
REMARK   45  A    between atoms: _132  and  _133
REMARK   46  A    between atoms: _138  and  _140
REMARK   47  A    between atoms: _140  and  _141
REMARK   48  A    between atoms: _140  and  _143
REMARK   49  A    between atoms: _143  and  _144
REMARK   50  A    between atoms: _150  and  _152
REMARK   51  A    between atoms: _152  and  _153
REMARK   52  A    between atoms: _152  and  _155
REMARK   53  A    between atoms: _155  and  _156
REMARK   54  A    between atoms: _156  and  _157
REMARK   55  A    between atoms: _157  and  _158
REMARK   56  A    between atoms: _167  and  _169
REMARK   57  A    between atoms: _169  and  _170
REMARK   58  A    between atoms: _169  and  _172
REMARK   59  A    between atoms: _172  and  _173
REMARK   60  A    between atoms: _178  and  _179
REMARK   61  A    between atoms: _181  and  _183
REMARK   62  A    between atoms: _183  and  _184
REMARK   63  A    between atoms: _183  and  _186
REMARK   64  A    between atoms: _186  and  _187
REMARK   65  A    between atoms: _189  and  _191
REMARK   66  A    between atoms: _191  and  _192
REMARK   67  A    between atoms: _191  and  _194
REMARK   68  A    between atoms: _194  and  _195
REMARK   69  A    between atoms: _200  and  _201
REMARK   70  A    between atoms: _203  and  _205
REMARK   71  A    between atoms: _205  and  _206
REMARK   72  A    between atoms: _205  and  _208
REMARK   73  A    between atoms: _208  and  _209
REMARK   74  A    between atoms: _212  and  _214
REMARK   75  A    between atoms: _214  and  _215
REMARK   76  A    between atoms: _214  and  _217
REMARK   77  A    between atoms: _217  and  _218
REMARK   78  A    between atoms: _221  and  _223
REMARK   79  A    between atoms: _223  and  _224
REMARK   80  A    between atoms: _223  and  _226
REMARK   81  A    between atoms: _226  and  _227
REMARK   82  A    between atoms: _227  and  _228
REMARK   83  A    between atoms: _228  and  _229
REMARK   84  A    between atoms: _238  and  _240
REMARK   85  A    between atoms: _240  and  _241
REMARK   86  A    between atoms: _243  and  _245
REMARK   87  A    between atoms: _245  and  _246
REMARK   88  A    between atoms: _245  and  _248
REMARK   89  A    between atoms: _248  and  _249
REMARK   90  A    between atoms: _252  and  _254
REMARK   91  A    between atoms: _254  and  _255
REMARK   92  A    between atoms: _254  and  _257
REMARK   93  A    between atoms: _257  and  _258
REMARK   94  A    between atoms: _261  and  _263
REMARK   95  A    between atoms: _263  and  _264
REMARK   96  A    between atoms: _263  and  _266
REMARK   97  A    between atoms: _266  and  _267
REMARK   98  A    between atoms: _273  and  _275
REMARK   99  A    between atoms: _275  and  _276
REMARK  100  A    between atoms: _275  and  _278
REMARK  101  A    between atoms: _278  and  _279
REMARK  102  A    between atoms: _279  and  _280
REMARK  103  A    between atoms: _280  and  _281
REMARK  104  A    between atoms: _290  and  _292
REMARK  105  A    between atoms: _292  and  _293
REMARK  106  A    between atoms: _292  and  _295
REMARK  107  A    between atoms: _295  and  _296
REMARK  108  A    between atoms: _301  and  _302
REMARK  109  A    between atoms: _304  and  _306
REMARK  110  A    between atoms: _306  and  _307
REMARK  111  A    between atoms: _306  and  _309
REMARK  112  A    between atoms: _309  and  _310
REMARK  113  A    between atoms: _313  and  _315
REMARK  114  A    between atoms: _315  and  _316
REMARK  115  A    between atoms: _315  and  _318
REMARK  116  A    between atoms: _318  and  _319
REMARK  117  A    between atoms: _329  and  _331
REMARK  118  A    between atoms: _331  and  _332
REMARK  119  A    between atoms: _331  and  _334
REMARK  120  A    between atoms: _334  and  _335
REMARK  121  A    between atoms: _340  and  _342
REMARK  122  A    between atoms: _342  and  _343
REMARK  123  A    between atoms: _342  and  _345
REMARK  124  A    between atoms: _345  and  _346
REMARK  125  A    between atoms: _350  and  ZN_449
REMARK  126  A    between atoms: _351  and  _353
REMARK  127  A    between atoms: _353  and  _354
REMARK  128  A    between atoms: _353  and  _356
REMARK  129  A    between atoms: _356  and  _357
REMARK  130  A    between atoms: _360  and  _362
REMARK  131  A    between atoms: _362  and  _363
REMARK  132  A    between atoms: _365  and  _367
REMARK  133  A    between atoms: _367  and  _368
REMARK  134  A    between atoms: _367  and  _370
REMARK  135  A    between atoms: _370  and  _371
REMARK  136  A    between atoms: _374  and  _376
REMARK  137  A    between atoms: _376  and  _377
REMARK  138  A    between atoms: _376  and  _379
REMARK  139  A    between atoms: _379  and  _380
REMARK  140  A    between atoms: _383  and  _385
REMARK  141  A    between atoms: _385  and  _386
REMARK  142  A    between atoms: _389  and  _391
REMARK  143  A    between atoms: _391  and  _392
REMARK  144  A    between atoms: _391  and  _394
REMARK  145  A    between atoms: _394  and  _395
REMARK  146  A    between atoms: _400  and  _401
REMARK  147  A    between atoms: _403  and  _405
REMARK  148  A    between atoms: _405  and  _406
REMARK  149  A    between atoms: _405  and  _408
REMARK  150  A    between atoms: _408  and  _409
REMARK  151  A    between atoms: _409  and  _410
REMARK  152  A    between atoms: _413  and  _415
REMARK  153  A    between atoms: _415  and  _416
REMARK  154  A    between atoms: _415  and  _418
REMARK  155  A    between atoms: _418  and  _419
REMARK  156  A    between atoms: _419  and  _420
REMARK  157  A    between atoms: _420  and  _421
REMARK  158  A    between atoms: _430  and  _432
REMARK  159  A    between atoms: _432  and  _433
REMARK  160  A    between atoms: _435  and  _437
REMARK  161  A    between atoms: _437  and  _438
REMARK  162  A    between atoms: _437  and  _440
REMARK  163  A    between atoms: _440  and  _441
REMARK  164  A    between atoms: _444  and  _446
REMARK  165  A    between atoms: _446  and  _447
REMARK                            x       y       z     vdW  Elec       q    Type
REMARK                         _______ _______ _______ _____ _____    ______ ____
ROOT
ATOM      1  O   HOH     1      26.264  72.808   5.629  0.00  0.00    +0.000 OA
ENDROOT
TORSDOF 0
REMARK  Name = ../refined-set-2016/3ddg/3ddg_pocket.pdb
REMARK  165 active torsions:
REMARK  status: ('A' for Active; 'I' for Inactive)
REMARK    1  A    between atoms: _1  and  _3
REMARK    2  A    between atoms: _3  and  _4
REMARK    3  A    between atoms: _3  and  _6
REMARK    4  A    between atoms: _6  and  _7
REMARK    5  A    between atoms: _12  and  _14
REMARK    6  A    between atoms: _25  and  _28
REMARK    7  A    between atoms: _28  and  _29
REMARK    8  A    between atoms: _36  and  _37
REMARK    9  A    between atoms: _44  and  _45
REMARK   10  A    between atoms: _50  and  _52
REMARK   11  A    between atoms: _52  and  _53
REMARK   12  A    between atoms: _55  and  _57
REMARK   13  A    between atoms: _57  and  _58
REMARK   14  A    between atoms: _57  and  _60
REMARK   15  A    between atoms: _60  and  _61
REMARK   16  A    between atoms: _71  and  _73
REMARK   17  A    between atoms: _73  and  _74
REMARK   18  A    between atoms: _73  and  _76
REMARK   19  A    between atoms: _76  and  _77
REMARK   20  A    between atoms: _80  and  _82
REMARK   21  A    between atoms: _82  and  _83
REMARK   22  A    between atoms: _82  and  _85
REMARK   23  A    between atoms: _85  and  _86
REMARK   24  A    between atoms: _91  and  _92
REMARK   25  A    between atoms: _94  and  _96
REMARK   26  A    between atoms: _96  and  _97
REMARK   27  A    between atoms: _96  and  _99
REMARK   28  A    between atoms: _99  and  _100
REMARK   29  A    between atoms: _100  and  _101
REMARK   30  A    between atoms: _104  and  _106
REMARK   31  A    between atoms: _106  and  _107
REMARK   32  A    between atoms: _106  and  _109
REMARK   33  A    between atoms: _109  and  _110
REMARK   34  A    between atoms: _110  and  _111
REMARK   35  A    between atoms: _113  and  _115
REMARK   36  A    between atoms: _115  and  _116
REMARK   37  A    between atoms: _115  and  _118
REMARK   38  A    between atoms: _118  and  _119
REMARK   39  A    between atoms: _122  and  _124
REMARK   40  A    between atoms: _124  and  _125
REMARK   41  A    between atoms: _124  and  _127
REMARK   42  A    between atoms: _127  and  _128
REMARK   43  A    between atoms: _128  and  _130
REMARK   44  A    between atoms: _130  and  ZN_449
REMARK   45  A    between atoms: _132  and  _133
REMARK   46  A    between atoms: _138  and  _140
REMARK   47  A    between atoms: _140  and  _141
REMARK   48  A    between atoms: _140  and  _143
REMARK   49  A    between atoms: _143  and  _144
REMARK   50  A    between atoms: _150  and  _152
REMARK   51  A    between atoms: _152  and  _153
REMARK   52  A    between atoms: _152  and  _155
REMARK   53  A    between atoms: _155  and  _156
REMARK   54  A    between atoms: _156  and  _157
REMARK   55  A    between atoms: _157  and  _158
REMARK   56  A    between atoms: _167  and  _169
REMARK   57  A    between atoms: _169  and  _170
REMARK   58  A    between atoms: _169  and  _172
REMARK   59  A    between atoms: _172  and  _173
REMARK   60  A    between atoms: _178  and  _179
REMARK   61  A    between atoms: _181  and  _183
REMARK   62  A    between atoms: _183  and  _184
REMARK   63  A    between atoms: _183  and  _186
REMARK   64  A    between atoms: _186  and  _187
REMARK   65  A    between atoms: _189  and  _191
REMARK   66  A    between atoms: _191  and  _192
REMARK   67  A    between atoms: _191  and  _194
REMARK   68  A    between atoms: _194  and  _195
REMARK   69  A    between atoms: _200  and  _201
REMARK   70  A    between atoms: _203  and  _205
REMARK   71  A    between atoms: _205  and  _206
REMARK   72  A    between atoms: _205  and  _208
REMARK   73  A    between atoms: _208  and  _209
REMARK   74  A    between atoms: _212  and  _214
REMARK   75  A    between atoms: _214  and  _215
REMARK   76  A    between atoms: _214  and  _217
REMARK   77  A    between atoms: _217  and  _218
REMARK   78  A    between atoms: _221  and  _223
REMARK   79  A    between atoms: _223  and  _224
REMARK   80  A    between atoms: _223  and  _226
REMARK   81  A    between atoms: _226  and  _227
REMARK   82  A    between atoms: _227  and  _228
REMARK   83  A    between atoms: _228  and  _229
REMARK   84  A    between atoms: _238  and  _240
REMARK   85  A    between atoms: _240  and  _241
REMARK   86  A    between atoms: _243  and  _245
REMARK   87  A    between atoms: _245  and  _246
REMARK   88  A    between atoms: _245  and  _248
REMARK   89  A    between atoms: _248  and  _249
REMARK   90  A    between atoms: _252  and  _254
REMARK   91  A    between atoms: _254  and  _255
REMARK   92  A    between atoms: _254  and  _257
REMARK   93  A    between atoms: _257  and  _258
REMARK   94  A    between atoms: _261  and  _263
REMARK   95  A    between atoms: _263  and  _264
REMARK   96  A    between atoms: _263  and  _266
REMARK   97  A    between atoms: _266  and  _267
REMARK   98  A    between atoms: _273  and  _275
REMARK   99  A    between atoms: _275  and  _276
REMARK  100  A    between atoms: _275  and  _278
REMARK  101  A    between atoms: _278  and  _279
REMARK  102  A    between atoms: _279  and  _280
REMARK  103  A    between atoms: _280  and  _281
REMARK  104  A    between atoms: _290  and  _292
REMARK  105  A    between atoms: _292  and  _293
REMARK  106  A    between atoms: _292  and  _295
REMARK  107  A    between atoms: _295  and  _296
REMARK  108  A    between atoms: _301  and  _302
REMARK  109  A    between atoms: _304  and  _306
REMARK  110  A    between atoms: _306  and  _307
REMARK  111  A    between atoms: _306  and  _309
REMARK  112  A    between atoms: _309  and  _310
REMARK  113  A    between atoms: _313  and  _315
REMARK  114  A    between atoms: _315  and  _316
REMARK  115  A    between atoms: _315  and  _318
REMARK  116  A    between atoms: _318  and  _319
REMARK  117  A    between atoms: _329  and  _331
REMARK  118  A    between atoms: _331  and  _332
REMARK  119  A    between atoms: _331  and  _334
REMARK  120  A    between atoms: _334  and  _335
REMARK  121  A    between atoms: _340  and  _342
REMARK  122  A    between atoms: _342  and  _343
REMARK  123  A    between atoms: _342  and  _345
REMARK  124  A    between atoms: _345  and  _346
REMARK  125  A    between atoms: _350  and  ZN_449
REMARK  126  A    between atoms: _351  and  _353
REMARK  127  A    between atoms: _353  and  _354
REMARK  128  A    between atoms: _353  and  _356
REMARK  129  A    between atoms: _356  and  _357
REMARK  130  A    between atoms: _360  and  _362
REMARK  131  A    between atoms: _362  and  _363
REMARK  132  A    between atoms: _365  and  _367
REMARK  133  A    between atoms: _367  and  _368
REMARK  134  A    between atoms: _367  and  _370
REMARK  135  A    between atoms: _370  and  _371
REMARK  136  A    between atoms: _374  and  _376
REMARK  137  A    between atoms: _376  and  _377
REMARK  138  A    between atoms: _376  and  _379
REMARK  139  A    between atoms: _379  and  _380
REMARK  140  A    between atoms: _383  and  _385
REMARK  141  A    between atoms: _385  and  _386
REMARK  142  A    between atoms: _389  and  _391
REMARK  143  A    between atoms: _391  and  _392
REMARK  144  A    between atoms: _391  and  _394
REMARK  145  A    between atoms: _394  and  _395
REMARK  146  A    between atoms: _400  and  _401
REMARK  147  A    between atoms: _403  and  _405
REMARK  148  A    between atoms: _405  and  _406
REMARK  149  A    between atoms: _405  and  _408
REMARK  150  A    between atoms: _408  and  _409
REMARK  151  A    between atoms: _409  and  _410
REMARK  152  A    between atoms: _413  and  _415
REMARK  153  A    between atoms: _415  and  _416
REMARK  154  A    between atoms: _415  and  _418
REMARK  155  A    between atoms: _418  and  _419
REMARK  156  A    between atoms: _419  and  _420
REMARK  157  A    between atoms: _420  and  _421
REMARK  158  A    between atoms: _430  and  _432
REMARK  159  A    between atoms: _432  and  _433
REMARK  160  A    between atoms: _435  and  _437
REMARK  161  A    between atoms: _437  and  _438
REMARK  162  A    between atoms: _437  and  _440
REMARK  163  A    between atoms: _440  and  _441
REMARK  164  A    between atoms: _444  and  _446
REMARK  165  A    between atoms: _446  and  _447
REMARK                            x       y       z     vdW  Elec       q    Type
REMARK                         _______ _______ _______ _____ _____    ______ ____
ROOT
ATOM      1  O   HOH     1      40.264  62.816   6.089  0.00  0.00    +0.000 OA
ENDROOT
TORSDOF 0
REMARK  Name = ../refined-set-2016/3ddg/3ddg_pocket.pdb
REMARK  165 active torsions:
REMARK  status: ('A' for Active; 'I' for Inactive)
REMARK    1  A    between atoms: _1  and  _3
REMARK    2  A    between atoms: _3  and  _4
REMARK    3  A    between atoms: _3  and  _6
REMARK    4  A    between atoms: _6  and  _7
REMARK    5  A    between atoms: _12  and  _14
REMARK    6  A    between atoms: _25  and  _28
REMARK    7  A    between atoms: _28  and  _29
REMARK    8  A    between atoms: _36  and  _37
REMARK    9  A    between atoms: _44  and  _45
REMARK   10  A    between atoms: _50  and  _52
REMARK   11  A    between atoms: _52  and  _53
REMARK   12  A    between atoms: _55  and  _57
REMARK   13  A    between atoms: _57  and  _58
REMARK   14  A    between atoms: _57  and  _60
REMARK   15  A    between atoms: _60  and  _61
REMARK   16  A    between atoms: _71  and  _73
REMARK   17  A    between atoms: _73  and  _74
REMARK   18  A    between atoms: _73  and  _76
REMARK   19  A    between atoms: _76  and  _77
REMARK   20  A    between atoms: _80  and  _82
REMARK   21  A    between atoms: _82  and  _83
REMARK   22  A    between atoms: _82  and  _85
REMARK   23  A    between atoms: _85  and  _86
REMARK   24  A    between atoms: _91  and  _92
REMARK   25  A    between atoms: _94  and  _96
REMARK   26  A    between atoms: _96  and  _97
REMARK   27  A    between atoms: _96  and  _99
REMARK   28  A    between atoms: _99  and  _100
REMARK   29  A    between atoms: _100  and  _101
REMARK   30  A    between atoms: _104  and  _106
REMARK   31  A    between atoms: _106  and  _107
REMARK   32  A    between atoms: _106  and  _109
REMARK   33  A    between atoms: _109  and  _110
REMARK   34  A    between atoms: _110  and  _111
REMARK   35  A    between atoms: _113  and  _115
REMARK   36  A    between atoms: _115  and  _116
REMARK   37  A    between atoms: _115  and  _118
REMARK   38  A    between atoms: _118  and  _119
REMARK   39  A    between atoms: _122  and  _124
REMARK   40  A    between atoms: _124  and  _125
REMARK   41  A    between atoms: _124  and  _127
REMARK   42  A    between atoms: _127  and  _128
REMARK   43  A    between atoms: _128  and  _130
REMARK   44  A    between atoms: _130  and  ZN_449
REMARK   45  A    between atoms: _132  and  _133
REMARK   46  A    between atoms: _138  and  _140
REMARK   47  A    between atoms: _140  and  _141
REMARK   48  A    between atoms: _140  and  _143
REMARK   49  A    between atoms: _143  and  _144
REMARK   50  A    between atoms: _150  and  _152
REMARK   51  A    between atoms: _152  and  _153
REMARK   52  A    between atoms: _152  and  _155
REMARK   53  A    between atoms: _155  and  _156
REMARK   54  A    between atoms: _156  and  _157
REMARK   55  A    between atoms: _157  and  _158
REMARK   56  A    between atoms: _167  and  _169
REMARK   57  A    between atoms: _169  and  _170
REMARK   58  A    between atoms: _169  and  _172
REMARK   59  A    between atoms: _172  and  _173
REMARK   60  A    between atoms: _178  and  _179
REMARK   61  A    between atoms: _181  and  _183
REMARK   62  A    between atoms: _183  and  _184
REMARK   63  A    between atoms: _183  and  _186
REMARK   64  A    between atoms: _186  and  _187
REMARK   65  A    between atoms: _189  and  _191
REMARK   66  A    between atoms: _191  and  _192
REMARK   67  A    between atoms: _191  and  _194
REMARK   68  A    between atoms: _194  and  _195
REMARK   69  A    between atoms: _200  and  _201
REMARK   70  A    between atoms: _203  and  _205
REMARK   71  A    between atoms: _205  and  _206
REMARK   72  A    between atoms: _205  and  _208
REMARK   73  A    between atoms: _208  and  _209
REMARK   74  A    between atoms: _212  and  _214
REMARK   75  A    between atoms: _214  and  _215
REMARK   76  A    between atoms: _214  and  _217
REMARK   77  A    between atoms: _217  and  _218
REMARK   78  A    between atoms: _221  and  _223
REMARK   79  A    between atoms: _223  and  _224
REMARK   80  A    between atoms: _223  and  _226
REMARK   81  A    between atoms: _226  and  _227
REMARK   82  A    between atoms: _227  and  _228
REMARK   83  A    between atoms: _228  and  _229
REMARK   84  A    between atoms: _238  and  _240
REMARK   85  A    between atoms: _240  and  _241
REMARK   86  A    between atoms: _243  and  _245
REMARK   87  A    between atoms: _245  and  _246
REMARK   88  A    between atoms: _245  and  _248
REMARK   89  A    between atoms: _248  and  _249
REMARK   90  A    between atoms: _252  and  _254
REMARK   91  A    between atoms: _254  and  _255
REMARK   92  A    between atoms: _254  and  _257
REMARK   93  A    between atoms: _257  and  _258
REMARK   94  A    between atoms: _261  and  _263
REMARK   95  A    between atoms: _263  and  _264
REMARK   96  A    between atoms: _263  and  _266
REMARK   97  A    between atoms: _266  and  _267
REMARK   98  A    between atoms: _273  and  _275
REMARK   99  A    between atoms: _275  and  _276
REMARK  100  A    between atoms: _275  and  _278
REMARK  101  A    between atoms: _278  and  _279
REMARK  102  A    between atoms: _279  and  _280
REMARK  103  A    between atoms: _280  and  _281
REMARK  104  A    between atoms: _290  and  _292
REMARK  105  A    between atoms: _292  and  _293
REMARK  106  A    between atoms: _292  and  _295
REMARK  107  A    between atoms: _295  and  _296
REMARK  108  A    between atoms: _301  and  _302
REMARK  109  A    between atoms: _304  and  _306
REMARK  110  A    between atoms: _306  and  _307
REMARK  111  A    between atoms: _306  and  _309
REMARK  112  A    between atoms: _309  and  _310
REMARK  113  A    between atoms: _313  and  _315
REMARK  114  A    between atoms: _315  and  _316
REMARK  115  A    between atoms: _315  and  _318
REMARK  116  A    between atoms: _318  and  _319
REMARK  117  A    between atoms: _329  and  _331
REMARK  118  A    between atoms: _331  and  _332
REMARK  119  A    between atoms: _331  and  _334
REMARK  120  A    between atoms: _334  and  _335
REMARK  121  A    between atoms: _340  and  _342
REMARK  122  A    between atoms: _342  and  _343
REMARK  123  A    between atoms: _342  and  _345
REMARK  124  A    between atoms: _345  and  _346
REMARK  125  A    between atoms: _350  and  ZN_449
REMARK  126  A    between atoms: _351  and  _353
REMARK  127  A    between atoms: _353  and  _354
REMARK  128  A    between atoms: _353  and  _356
REMARK  129  A    between atoms: _356  and  _357
REMARK  130  A    between atoms: _360  and  _362
REMARK  131  A    between atoms: _362  and  _363
REMARK  132  A    between atoms: _365  and  _367
REMARK  133  A    between atoms: _367  and  _368
REMARK  134  A    between atoms: _367  and  _370
REMARK  135  A    between atoms: _370  and  _371
REMARK  136  A    between atoms: _374  and  _376
REMARK  137  A    between atoms: _376  and  _377
REMARK  138  A    between atoms: _376  and  _379
REMARK  139  A    between atoms: _379  and  _380
REMARK  140  A    between atoms: _383  and  _385
REMARK  141  A    between atoms: _385  and  _386
REMARK  142  A    between atoms: _389  and  _391
REMARK  143  A    between atoms: _391  and  _392
REMARK  144  A    between atoms: _391  and  _394
REMARK  145  A    between atoms: _394  and  _395
REMARK  146  A    between atoms: _400  and  _401
REMARK  147  A    between atoms: _403  and  _405
REMARK  148  A    between atoms: _405  and  _406
REMARK  149  A    between atoms: _405  and  _408
REMARK  150  A    between atoms: _408  and  _409
REMARK  151  A    between atoms: _409  and  _410
REMARK  152  A    between atoms: _413  and  _415
REMARK  153  A    between atoms: _415  and  _416
REMARK  154  A    between atoms: _415  and  _418
REMARK  155  A    between atoms: _418  and  _419
REMARK  156  A    between atoms: _419  and  _420
REMARK  157  A    between atoms: _420  and  _421
REMARK  158  A    between atoms: _430  and  _432
REMARK  159  A    between atoms: _432  and  _433
REMARK  160  A    between atoms: _435  and  _437
REMARK  161  A    between atoms: _437  and  _438
REMARK  162  A    between atoms: _437  and  _440
REMARK  163  A    between atoms: _440  and  _441
REMARK  164  A    between atoms: _444  and  _446
REMARK  165  A    between atoms: _446  and  _447
REMARK                            x       y       z     vdW  Elec       q    Type
REMARK                         _______ _______ _______ _____ _____    ______ ____
ROOT
ATOM      1  O   HOH     1      38.775  62.513   8.407  0.00  0.00    +0.000 OA
ENDROOT
TORSDOF 0
REMARK  Name = ../refined-set-2016/3ddg/3ddg_pocket.pdb
REMARK  165 active torsions:
REMARK  status: ('A' for Active; 'I' for Inactive)
REMARK    1  A    between atoms: _1  and  _3
REMARK    2  A    between atoms: _3  and  _4
REMARK    3  A    between atoms: _3  and  _6
REMARK    4  A    between atoms: _6  and  _7
REMARK    5  A    between atoms: _12  and  _14
REMARK    6  A    between atoms: _25  and  _28
REMARK    7  A    between atoms: _28  and  _29
REMARK    8  A    between atoms: _36  and  _37
REMARK    9  A    between atoms: _44  and  _45
REMARK   10  A    between atoms: _50  and  _52
REMARK   11  A    between atoms: _52  and  _53
REMARK   12  A    between atoms: _55  and  _57
REMARK   13  A    between atoms: _57  and  _58
REMARK   14  A    between atoms: _57  and  _60
REMARK   15  A    between atoms: _60  and  _61
REMARK   16  A    between atoms: _71  and  _73
REMARK   17  A    between atoms: _73  and  _74
REMARK   18  A    between atoms: _73  and  _76
REMARK   19  A    between atoms: _76  and  _77
REMARK   20  A    between atoms: _80  and  _82
REMARK   21  A    between atoms: _82  and  _83
REMARK   22  A    between atoms: _82  and  _85
REMARK   23  A    between atoms: _85  and  _86
REMARK   24  A    between atoms: _91  and  _92
REMARK   25  A    between atoms: _94  and  _96
REMARK   26  A    between atoms: _96  and  _97
REMARK   27  A    between atoms: _96  and  _99
REMARK   28  A    between atoms: _99  and  _100
REMARK   29  A    between atoms: _100  and  _101
REMARK   30  A    between atoms: _104  and  _106
REMARK   31  A    between atoms: _106  and  _107
REMARK   32  A    between atoms: _106  and  _109
REMARK   33  A    between atoms: _109  and  _110
REMARK   34  A    between atoms: _110  and  _111
REMARK   35  A    between atoms: _113  and  _115
REMARK   36  A    between atoms: _115  and  _116
REMARK   37  A    between atoms: _115  and  _118
REMARK   38  A    between atoms: _118  and  _119
REMARK   39  A    between atoms: _122  and  _124
REMARK   40  A    between atoms: _124  and  _125
REMARK   41  A    between atoms: _124  and  _127
REMARK   42  A    between atoms: _127  and  _128
REMARK   43  A    between atoms: _128  and  _130
REMARK   44  A    between atoms: _130  and  ZN_449
REMARK   45  A    between atoms: _132  and  _133
REMARK   46  A    between atoms: _138  and  _140
REMARK   47  A    between atoms: _140  and  _141
REMARK   48  A    between atoms: _140  and  _143
REMARK   49  A    between atoms: _143  and  _144
REMARK   50  A    between atoms: _150  and  _152
REMARK   51  A    between atoms: _152  and  _153
REMARK   52  A    between atoms: _152  and  _155
REMARK   53  A    between atoms: _155  and  _156
REMARK   54  A    between atoms: _156  and  _157
REMARK   55  A    between atoms: _157  and  _158
REMARK   56  A    between atoms: _167  and  _169
REMARK   57  A    between atoms: _169  and  _170
REMARK   58  A    between atoms: _169  and  _172
REMARK   59  A    between atoms: _172  and  _173
REMARK   60  A    between atoms: _178  and  _179
REMARK   61  A    between atoms: _181  and  _183
REMARK   62  A    between atoms: _183  and  _184
REMARK   63  A    between atoms: _183  and  _186
REMARK   64  A    between atoms: _186  and  _187
REMARK   65  A    between atoms: _189  and  _191
REMARK   66  A    between atoms: _191  and  _192
REMARK   67  A    between atoms: _191  and  _194
REMARK   68  A    between atoms: _194  and  _195
REMARK   69  A    between atoms: _200  and  _201
REMARK   70  A    between atoms: _203  and  _205
REMARK   71  A    between atoms: _205  and  _206
REMARK   72  A    between atoms: _205  and  _208
REMARK   73  A    between atoms: _208  and  _209
REMARK   74  A    between atoms: _212  and  _214
REMARK   75  A    between atoms: _214  and  _215
REMARK   76  A    between atoms: _214  and  _217
REMARK   77  A    between atoms: _217  and  _218
REMARK   78  A    between atoms: _221  and  _223
REMARK   79  A    between atoms: _223  and  _224
REMARK   80  A    between atoms: _223  and  _226
REMARK   81  A    between atoms: _226  and  _227
REMARK   82  A    between atoms: _227  and  _228
REMARK   83  A    between atoms: _228  and  _229
REMARK   84  A    between atoms: _238  and  _240
REMARK   85  A    between atoms: _240  and  _241
REMARK   86  A    between atoms: _243  and  _245
REMARK   87  A    between atoms: _245  and  _246
REMARK   88  A    between atoms: _245  and  _248
REMARK   89  A    between atoms: _248  and  _249
REMARK   90  A    between atoms: _252  and  _254
REMARK   91  A    between atoms: _254  and  _255
REMARK   92  A    between atoms: _254  and  _257
REMARK   93  A    between atoms: _257  and  _258
REMARK   94  A    between atoms: _261  and  _263
REMARK   95  A    between atoms: _263  and  _264
REMARK   96  A    between atoms: _263  and  _266
REMARK   97  A    between atoms: _266  and  _267
REMARK   98  A    between atoms: _273  and  _275
REMARK   99  A    between atoms: _275  and  _276
REMARK  100  A    between atoms: _275  and  _278
REMARK  101  A    between atoms: _278  and  _279
REMARK  102  A    between atoms: _279  and  _280
REMARK  103  A    between atoms: _280  and  _281
REMARK  104  A    between atoms: _290  and  _292
REMARK  105  A    between atoms: _292  and  _293
REMARK  106  A    between atoms: _292  and  _295
REMARK  107  A    between atoms: _295  and  _296
REMARK  108  A    between atoms: _301  and  _302
REMARK  109  A    between atoms: _304  and  _306
REMARK  110  A    between atoms: _306  and  _307
REMARK  111  A    between atoms: _306  and  _309
REMARK  112  A    between atoms: _309  and  _310
REMARK  113  A    between atoms: _313  and  _315
REMARK  114  A    between atoms: _315  and  _316
REMARK  115  A    between atoms: _315  and  _318
REMARK  116  A    between atoms: _318  and  _319
REMARK  117  A    between atoms: _329  and  _331
REMARK  118  A    between atoms: _331  and  _332
REMARK  119  A    between atoms: _331  and  _334
REMARK  120  A    between atoms: _334  and  _335
REMARK  121  A    between atoms: _340  and  _342
REMARK  122  A    between atoms: _342  and  _343
REMARK  123  A    between atoms: _342  and  _345
REMARK  124  A    between atoms: _345  and  _346
REMARK  125  A    between atoms: _350  and  ZN_449
REMARK  126  A    between atoms: _351  and  _353
REMARK  127  A    between atoms: _353  and  _354
REMARK  128  A    between atoms: _353  and  _356
REMARK  129  A    between atoms: _356  and  _357
REMARK  130  A    between atoms: _360  and  _362
REMARK  131  A    between atoms: _362  and  _363
REMARK  132  A    between atoms: _365  and  _367
REMARK  133  A    between atoms: _367  and  _368
REMARK  134  A    between atoms: _367  and  _370
REMARK  135  A    between atoms: _370  and  _371
REMARK  136  A    between atoms: _374  and  _376
REMARK  137  A    between atoms: _376  and  _377
REMARK  138  A    between atoms: _376  and  _379
REMARK  139  A    between atoms: _379  and  _380
REMARK  140  A    between atoms: _383  and  _385
REMARK  141  A    between atoms: _385  and  _386
REMARK  142  A    between atoms: _389  and  _391
REMARK  143  A    between atoms: _391  and  _392
REMARK  144  A    between atoms: _391  and  _394
REMARK  145  A    between atoms: _394  and  _395
REMARK  146  A    between atoms: _400  and  _401
REMARK  147  A    between atoms: _403  and  _405
REMARK  148  A    between atoms: _405  and  _406
REMARK  149  A    between atoms: _405  and  _408
REMARK  150  A    between atoms: _408  and  _409
REMARK  151  A    between atoms: _409  and  _410
REMARK  152  A    between atoms: _413  and  _415
REMARK  153  A    between atoms: _415  and  _416
REMARK  154  A    between atoms: _415  and  _418
REMARK  155  A    between atoms: _418  and  _419
REMARK  156  A    between atoms: _419  and  _420
REMARK  157  A    between atoms: _420  and  _421
REMARK  158  A    between atoms: _430  and  _432
REMARK  159  A    between atoms: _432  and  _433
REMARK  160  A    between atoms: _435  and  _437
REMARK  161  A    between atoms: _437  and  _438
REMARK  162  A    between atoms: _437  and  _440
REMARK  163  A    between atoms: _440  and  _441
REMARK  164  A    between atoms: _444  and  _446
REMARK  165  A    between atoms: _446  and  _447
REMARK                            x       y       z     vdW  Elec       q    Type
REMARK                         _______ _______ _______ _____ _____    ______ ____
ROOT
ATOM      1  O   HOH     1      38.028  59.052  11.058  0.00  0.00    +0.000 OA
ENDROOT
TORSDOF 0
REMARK  Name = ../refined-set-2016/3ddg/3ddg_pocket.pdb
REMARK  165 active torsions:
REMARK  status: ('A' for Active; 'I' for Inactive)
REMARK    1  A    between atoms: _1  and  _3
REMARK    2  A    between atoms: _3  and  _4
REMARK    3  A    between atoms: _3  and  _6
REMARK    4  A    between atoms: _6  and  _7
REMARK    5  A    between atoms: _12  and  _14
REMARK    6  A    between atoms: _25  and  _28
REMARK    7  A    between atoms: _28  and  _29
REMARK    8  A    between atoms: _36  and  _37
REMARK    9  A    between atoms: _44  and  _45
REMARK   10  A    between atoms: _50  and  _52
REMARK   11  A    between atoms: _52  and  _53
REMARK   12  A    between atoms: _55  and  _57
REMARK   13  A    between atoms: _57  and  _58
REMARK   14  A    between atoms: _57  and  _60
REMARK   15  A    between atoms: _60  and  _61
REMARK   16  A    between atoms: _71  and  _73
REMARK   17  A    between atoms: _73  and  _74
REMARK   18  A    between atoms: _73  and  _76
REMARK   19  A    between atoms: _76  and  _77
REMARK   20  A    between atoms: _80  and  _82
REMARK   21  A    between atoms: _82  and  _83
REMARK   22  A    between atoms: _82  and  _85
REMARK   23  A    between atoms: _85  and  _86
REMARK   24  A    between atoms: _91  and  _92
REMARK   25  A    between atoms: _94  and  _96
REMARK   26  A    between atoms: _96  and  _97
REMARK   27  A    between atoms: _96  and  _99
REMARK   28  A    between atoms: _99  and  _100
REMARK   29  A    between atoms: _100  and  _101
REMARK   30  A    between atoms: _104  and  _106
REMARK   31  A    between atoms: _106  and  _107
REMARK   32  A    between atoms: _106  and  _109
REMARK   33  A    between atoms: _109  and  _110
REMARK   34  A    between atoms: _110  and  _111
REMARK   35  A    between atoms: _113  and  _115
REMARK   36  A    between atoms: _115  and  _116
REMARK   37  A    between atoms: _115  and  _118
REMARK   38  A    between atoms: _118  and  _119
REMARK   39  A    between atoms: _122  and  _124
REMARK   40  A    between atoms: _124  and  _125
REMARK   41  A    between atoms: _124  and  _127
REMARK   42  A    between atoms: _127  and  _128
REMARK   43  A    between atoms: _128  and  _130
REMARK   44  A    between atoms: _130  and  ZN_449
REMARK   45  A    between atoms: _132  and  _133
REMARK   46  A    between atoms: _138  and  _140
REMARK   47  A    between atoms: _140  and  _141
REMARK   48  A    between atoms: _140  and  _143
REMARK   49  A    between atoms: _143  and  _144
REMARK   50  A    between atoms: _150  and  _152
REMARK   51  A    between atoms: _152  and  _153
REMARK   52  A    between atoms: _152  and  _155
REMARK   53  A    between atoms: _155  and  _156
REMARK   54  A    between atoms: _156  and  _157
REMARK   55  A    between atoms: _157  and  _158
REMARK   56  A    between atoms: _167  and  _169
REMARK   57  A    between atoms: _169  and  _170
REMARK   58  A    between atoms: _169  and  _172
REMARK   59  A    between atoms: _172  and  _173
REMARK   60  A    between atoms: _178  and  _179
REMARK   61  A    between atoms: _181  and  _183
REMARK   62  A    between atoms: _183  and  _184
REMARK   63  A    between atoms: _183  and  _186
REMARK   64  A    between atoms: _186  and  _187
REMARK   65  A    between atoms: _189  and  _191
REMARK   66  A    between atoms: _191  and  _192
REMARK   67  A    between atoms: _191  and  _194
REMARK   68  A    between atoms: _194  and  _195
REMARK   69  A    between atoms: _200  and  _201
REMARK   70  A    between atoms: _203  and  _205
REMARK   71  A    between atoms: _205  and  _206
REMARK   72  A    between atoms: _205  and  _208
REMARK   73  A    between atoms: _208  and  _209
REMARK   74  A    between atoms: _212  and  _214
REMARK   75  A    between atoms: _214  and  _215
REMARK   76  A    between atoms: _214  and  _217
REMARK   77  A    between atoms: _217  and  _218
REMARK   78  A    between atoms: _221  and  _223
REMARK   79  A    between atoms: _223  and  _224
REMARK   80  A    between atoms: _223  and  _226
REMARK   81  A    between atoms: _226  and  _227
REMARK   82  A    between atoms: _227  and  _228
REMARK   83  A    between atoms: _228  and  _229
REMARK   84  A    between atoms: _238  and  _240
REMARK   85  A    between atoms: _240  and  _241
REMARK   86  A    between atoms: _243  and  _245
REMARK   87  A    between atoms: _245  and  _246
REMARK   88  A    between atoms: _245  and  _248
REMARK   89  A    between atoms: _248  and  _249
REMARK   90  A    between atoms: _252  and  _254
REMARK   91  A    between atoms: _254  and  _255
REMARK   92  A    between atoms: _254  and  _257
REMARK   93  A    between atoms: _257  and  _258
REMARK   94  A    between atoms: _261  and  _263
REMARK   95  A    between atoms: _263  and  _264
REMARK   96  A    between atoms: _263  and  _266
REMARK   97  A    between atoms: _266  and  _267
REMARK   98  A    between atoms: _273  and  _275
REMARK   99  A    between atoms: _275  and  _276
REMARK  100  A    between atoms: _275  and  _278
REMARK  101  A    between atoms: _278  and  _279
REMARK  102  A    between atoms: _279  and  _280
REMARK  103  A    between atoms: _280  and  _281
REMARK  104  A    between atoms: _290  and  _292
REMARK  105  A    between atoms: _292  and  _293
REMARK  106  A    between atoms: _292  and  _295
REMARK  107  A    between atoms: _295  and  _296
REMARK  108  A    between atoms: _301  and  _302
REMARK  109  A    between atoms: _304  and  _306
REMARK  110  A    between atoms: _306  and  _307
REMARK  111  A    between atoms: _306  and  _309
REMARK  112  A    between atoms: _309  and  _310
REMARK  113  A    between atoms: _313  and  _315
REMARK  114  A    between atoms: _315  and  _316
REMARK  115  A    between atoms: _315  and  _318
REMARK  116  A    between atoms: _318  and  _319
REMARK  117  A    between atoms: _329  and  _331
REMARK  118  A    between atoms: _331  and  _332
REMARK  119  A    between atoms: _331  and  _334
REMARK  120  A    between atoms: _334  and  _335
REMARK  121  A    between atoms: _340  and  _342
REMARK  122  A    between atoms: _342  and  _343
REMARK  123  A    between atoms: _342  and  _345
REMARK  124  A    between atoms: _345  and  _346
REMARK  125  A    between atoms: _350  and  ZN_449
REMARK  126  A    between atoms: _351  and  _353
REMARK  127  A    between atoms: _353  and  _354
REMARK  128  A    between atoms: _353  and  _356
REMARK  129  A    between atoms: _356  and  _357
REMARK  130  A    between atoms: _360  and  _362
REMARK  131  A    between atoms: _362  and  _363
REMARK  132  A    between atoms: _365  and  _367
REMARK  133  A    between atoms: _367  and  _368
REMARK  134  A    between atoms: _367  and  _370
REMARK  135  A    between atoms: _370  and  _371
REMARK  136  A    between atoms: _374  and  _376
REMARK  137  A    between atoms: _376  and  _377
REMARK  138  A    between atoms: _376  and  _379
REMARK  139  A    between atoms: _379  and  _380
REMARK  140  A    between atoms: _383  and  _385
REMARK  141  A    between atoms: _385  and  _386
REMARK  142  A    between atoms: _389  and  _391
REMARK  143  A    between atoms: _391  and  _392
REMARK  144  A    between atoms: _391  and  _394
REMARK  145  A    between atoms: _394  and  _395
REMARK  146  A    between atoms: _400  and  _401
REMARK  147  A    between atoms: _403  and  _405
REMARK  148  A    between atoms: _405  and  _406
REMARK  149  A    between atoms: _405  and  _408
REMARK  150  A    between atoms: _408  and  _409
REMARK  151  A    between atoms: _409  and  _410
REMARK  152  A    between atoms: _413  and  _415
REMARK  153  A    between atoms: _415  and  _416
REMARK  154  A    between atoms: _415  and  _418
REMARK  155  A    between atoms: _418  and  _419
REMARK  156  A    between atoms: _419  and  _420
REMARK  157  A    between atoms: _420  and  _421
REMARK  158  A    between atoms: _430  and  _432
REMARK  159  A    between atoms: _432  and  _433
REMARK  160  A    between atoms: _435  and  _437
REMARK  161  A    between atoms: _437  and  _438
REMARK  162  A    between atoms: _437  and  _440
REMARK  163  A    between atoms: _440  and  _441
REMARK  164  A    between atoms: _444  and  _446
REMARK  165  A    between atoms: _446  and  _447
REMARK                            x       y       z     vdW  Elec       q    Type
REMARK                         _______ _______ _______ _____ _____    ______ ____
ROOT
ATOM      1  O   HOH     1      28.698  68.187  16.057  0.00  0.00    +0.000 OA
ENDROOT
TORSDOF 0
REMARK  Name = ../refined-set-2016/3ddg/3ddg_pocket.pdb
REMARK  165 active torsions:
REMARK  status: ('A' for Active; 'I' for Inactive)
REMARK    1  A    between atoms: _1  and  _3
REMARK    2  A    between atoms: _3  and  _4
REMARK    3  A    between atoms: _3  and  _6
REMARK    4  A    between atoms: _6  and  _7
REMARK    5  A    between atoms: _12  and  _14
REMARK    6  A    between atoms: _25  and  _28
REMARK    7  A    between atoms: _28  and  _29
REMARK    8  A    between atoms: _36  and  _37
REMARK    9  A    between atoms: _44  and  _45
REMARK   10  A    between atoms: _50  and  _52
REMARK   11  A    between atoms: _52  and  _53
REMARK   12  A    between atoms: _55  and  _57
REMARK   13  A    between atoms: _57  and  _58
REMARK   14  A    between atoms: _57  and  _60
REMARK   15  A    between atoms: _60  and  _61
REMARK   16  A    between atoms: _71  and  _73
REMARK   17  A    between atoms: _73  and  _74
REMARK   18  A    between atoms: _73  and  _76
REMARK   19  A    between atoms: _76  and  _77
REMARK   20  A    between atoms: _80  and  _82
REMARK   21  A    between atoms: _82  and  _83
REMARK   22  A    between atoms: _82  and  _85
REMARK   23  A    between atoms: _85  and  _86
REMARK   24  A    between atoms: _91  and  _92
REMARK   25  A    between atoms: _94  and  _96
REMARK   26  A    between atoms: _96  and  _97
REMARK   27  A    between atoms: _96  and  _99
REMARK   28  A    between atoms: _99  and  _100
REMARK   29  A    between atoms: _100  and  _101
REMARK   30  A    between atoms: _104  and  _106
REMARK   31  A    between atoms: _106  and  _107
REMARK   32  A    between atoms: _106  and  _109
REMARK   33  A    between atoms: _109  and  _110
REMARK   34  A    between atoms: _110  and  _111
REMARK   35  A    between atoms: _113  and  _115
REMARK   36  A    between atoms: _115  and  _116
REMARK   37  A    between atoms: _115  and  _118
REMARK   38  A    between atoms: _118  and  _119
REMARK   39  A    between atoms: _122  and  _124
REMARK   40  A    between atoms: _124  and  _125
REMARK   41  A    between atoms: _124  and  _127
REMARK   42  A    between atoms: _127  and  _128
REMARK   43  A    between atoms: _128  and  _130
REMARK   44  A    between atoms: _130  and  ZN_449
REMARK   45  A    between atoms: _132  and  _133
REMARK   46  A    between atoms: _138  and  _140
REMARK   47  A    between atoms: _140  and  _141
REMARK   48  A    between atoms: _140  and  _143
REMARK   49  A    between atoms: _143  and  _144
REMARK   50  A    between atoms: _150  and  _152
REMARK   51  A    between atoms: _152  and  _153
REMARK   52  A    between atoms: _152  and  _155
REMARK   53  A    between atoms: _155  and  _156
REMARK   54  A    between atoms: _156  and  _157
REMARK   55  A    between atoms: _157  and  _158
REMARK   56  A    between atoms: _167  and  _169
REMARK   57  A    between atoms: _169  and  _170
REMARK   58  A    between atoms: _169  and  _172
REMARK   59  A    between atoms: _172  and  _173
REMARK   60  A    between atoms: _178  and  _179
REMARK   61  A    between atoms: _181  and  _183
REMARK   62  A    between atoms: _183  and  _184
REMARK   63  A    between atoms: _183  and  _186
REMARK   64  A    between atoms: _186  and  _187
REMARK   65  A    between atoms: _189  and  _191
REMARK   66  A    between atoms: _191  and  _192
REMARK   67  A    between atoms: _191  and  _194
REMARK   68  A    between atoms: _194  and  _195
REMARK   69  A    between atoms: _200  and  _201
REMARK   70  A    between atoms: _203  and  _205
REMARK   71  A    between atoms: _205  and  _206
REMARK   72  A    between atoms: _205  and  _208
REMARK   73  A    between atoms: _208  and  _209
REMARK   74  A    between atoms: _212  and  _214
REMARK   75  A    between atoms: _214  and  _215
REMARK   76  A    between atoms: _214  and  _217
REMARK   77  A    between atoms: _217  and  _218
REMARK   78  A    between atoms: _221  and  _223
REMARK   79  A    between atoms: _223  and  _224
REMARK   80  A    between atoms: _223  and  _226
REMARK   81  A    between atoms: _226  and  _227
REMARK   82  A    between atoms: _227  and  _228
REMARK   83  A    between atoms: _228  and  _229
REMARK   84  A    between atoms: _238  and  _240
REMARK   85  A    between atoms: _240  and  _241
REMARK   86  A    between atoms: _243  and  _245
REMARK   87  A    between atoms: _245  and  _246
REMARK   88  A    between atoms: _245  and  _248
REMARK   89  A    between atoms: _248  and  _249
REMARK   90  A    between atoms: _252  and  _254
REMARK   91  A    between atoms: _254  and  _255
REMARK   92  A    between atoms: _254  and  _257
REMARK   93  A    between atoms: _257  and  _258
REMARK   94  A    between atoms: _261  and  _263
REMARK   95  A    between atoms: _263  and  _264
REMARK   96  A    between atoms: _263  and  _266
REMARK   97  A    between atoms: _266  and  _267
REMARK   98  A    between atoms: _273  and  _275
REMARK   99  A    between atoms: _275  and  _276
REMARK  100  A    between atoms: _275  and  _278
REMARK  101  A    between atoms: _278  and  _279
REMARK  102  A    between atoms: _279  and  _280
REMARK  103  A    between atoms: _280  and  _281
REMARK  104  A    between atoms: _290  and  _292
REMARK  105  A    between atoms: _292  and  _293
REMARK  106  A    between atoms: _292  and  _295
REMARK  107  A    between atoms: _295  and  _296
REMARK  108  A    between atoms: _301  and  _302
REMARK  109  A    between atoms: _304  and  _306
REMARK  110  A    between atoms: _306  and  _307
REMARK  111  A    between atoms: _306  and  _309
REMARK  112  A    between atoms: _309  and  _310
REMARK  113  A    between atoms: _313  and  _315
REMARK  114  A    between atoms: _315  and  _316
REMARK  115  A    between atoms: _315  and  _318
REMARK  116  A    between atoms: _318  and  _319
REMARK  117  A    between atoms: _329  and  _331
REMARK  118  A    between atoms: _331  and  _332
REMARK  119  A    between atoms: _331  and  _334
REMARK  120  A    between atoms: _334  and  _335
REMARK  121  A    between atoms: _340  and  _342
REMARK  122  A    between atoms: _342  and  _343
REMARK  123  A    between atoms: _342  and  _345
REMARK  124  A    between atoms: _345  and  _346
REMARK  125  A    between atoms: _350  and  ZN_449
REMARK  126  A    between atoms: _351  and  _353
REMARK  127  A    between atoms: _353  and  _354
REMARK  128  A    between atoms: _353  and  _356
REMARK  129  A    between atoms: _356  and  _357
REMARK  130  A    between atoms: _360  and  _362
REMARK  131  A    between atoms: _362  and  _363
REMARK  132  A    between atoms: _365  and  _367
REMARK  133  A    between atoms: _367  and  _368
REMARK  134  A    between atoms: _367  and  _370
REMARK  135  A    between atoms: _370  and  _371
REMARK  136  A    between atoms: _374  and  _376
REMARK  137  A    between atoms: _376  and  _377
REMARK  138  A    between atoms: _376  and  _379
REMARK  139  A    between atoms: _379  and  _380
REMARK  140  A    between atoms: _383  and  _385
REMARK  141  A    between atoms: _385  and  _386
REMARK  142  A    between atoms: _389  and  _391
REMARK  143  A    between atoms: _391  and  _392
REMARK  144  A    between atoms: _391  and  _394
REMARK  145  A    between atoms: _394  and  _395
REMARK  146  A    between atoms: _400  and  _401
REMARK  147  A    between atoms: _403  and  _405
REMARK  148  A    between atoms: _405  and  _406
REMARK  149  A    between atoms: _405  and  _408
REMARK  150  A    between atoms: _408  and  _409
REMARK  151  A    between atoms: _409  and  _410
REMARK  152  A    between atoms: _413  and  _415
REMARK  153  A    between atoms: _415  and  _416
REMARK  154  A    between atoms: _415  and  _418
REMARK  155  A    between atoms: _418  and  _419
REMARK  156  A    between atoms: _419  and  _420
REMARK  157  A    between atoms: _420  and  _421
REMARK  158  A    between atoms: _430  and  _432
REMARK  159  A    between atoms: _432  and  _433
REMARK  160  A    between atoms: _435  and  _437
REMARK  161  A    between atoms: _437  and  _438
REMARK  162  A    between atoms: _437  and  _440
REMARK  163  A    between atoms: _440  and  _441
REMARK  164  A    between atoms: _444  and  _446
REMARK  165  A    between atoms: _446  and  _447
REMARK                            x       y       z     vdW  Elec       q    Type
REMARK                         _______ _______ _______ _____ _____    ______ ____
ROOT
ATOM      1  O   HOH     1      29.721  65.939  17.143  0.00  0.00    +0.000 OA
ENDROOT
TORSDOF 0
REMARK  Name = ../refined-set-2016/3ddg/3ddg_pocket.pdb
REMARK  165 active torsions:
REMARK  status: ('A' for Active; 'I' for Inactive)
REMARK    1  A    between atoms: _1  and  _3
REMARK    2  A    between atoms: _3  and  _4
REMARK    3  A    between atoms: _3  and  _6
REMARK    4  A    between atoms: _6  and  _7
REMARK    5  A    between atoms: _12  and  _14
REMARK    6  A    between atoms: _25  and  _28
REMARK    7  A    between atoms: _28  and  _29
REMARK    8  A    between atoms: _36  and  _37
REMARK    9  A    between atoms: _44  and  _45
REMARK   10  A    between atoms: _50  and  _52
REMARK   11  A    between atoms: _52  and  _53
REMARK   12  A    between atoms: _55  and  _57
REMARK   13  A    between atoms: _57  and  _58
REMARK   14  A    between atoms: _57  and  _60
REMARK   15  A    between atoms: _60  and  _61
REMARK   16  A    between atoms: _71  and  _73
REMARK   17  A    between atoms: _73  and  _74
REMARK   18  A    between atoms: _73  and  _76
REMARK   19  A    between atoms: _76  and  _77
REMARK   20  A    between atoms: _80  and  _82
REMARK   21  A    between atoms: _82  and  _83
REMARK   22  A    between atoms: _82  and  _85
REMARK   23  A    between atoms: _85  and  _86
REMARK   24  A    between atoms: _91  and  _92
REMARK   25  A    between atoms: _94  and  _96
REMARK   26  A    between atoms: _96  and  _97
REMARK   27  A    between atoms: _96  and  _99
REMARK   28  A    between atoms: _99  and  _100
REMARK   29  A    between atoms: _100  and  _101
REMARK   30  A    between atoms: _104  and  _106
REMARK   31  A    between atoms: _106  and  _107
REMARK   32  A    between atoms: _106  and  _109
REMARK   33  A    between atoms: _109  and  _110
REMARK   34  A    between atoms: _110  and  _111
REMARK   35  A    between atoms: _113  and  _115
REMARK   36  A    between atoms: _115  and  _116
REMARK   37  A    between atoms: _115  and  _118
REMARK   38  A    between atoms: _118  and  _119
REMARK   39  A    between atoms: _122  and  _124
REMARK   40  A    between atoms: _124  and  _125
REMARK   41  A    between atoms: _124  and  _127
REMARK   42  A    between atoms: _127  and  _128
REMARK   43  A    between atoms: _128  and  _130
REMARK   44  A    between atoms: _130  and  ZN_449
REMARK   45  A    between atoms: _132  and  _133
REMARK   46  A    between atoms: _138  and  _140
REMARK   47  A    between atoms: _140  and  _141
REMARK   48  A    between atoms: _140  and  _143
REMARK   49  A    between atoms: _143  and  _144
REMARK   50  A    between atoms: _150  and  _152
REMARK   51  A    between atoms: _152  and  _153
REMARK   52  A    between atoms: _152  and  _155
REMARK   53  A    between atoms: _155  and  _156
REMARK   54  A    between atoms: _156  and  _157
REMARK   55  A    between atoms: _157  and  _158
REMARK   56  A    between atoms: _167  and  _169
REMARK   57  A    between atoms: _169  and  _170
REMARK   58  A    between atoms: _169  and  _172
REMARK   59  A    between atoms: _172  and  _173
REMARK   60  A    between atoms: _178  and  _179
REMARK   61  A    between atoms: _181  and  _183
REMARK   62  A    between atoms: _183  and  _184
REMARK   63  A    between atoms: _183  and  _186
REMARK   64  A    between atoms: _186  and  _187
REMARK   65  A    between atoms: _189  and  _191
REMARK   66  A    between atoms: _191  and  _192
REMARK   67  A    between atoms: _191  and  _194
REMARK   68  A    between atoms: _194  and  _195
REMARK   69  A    between atoms: _200  and  _201
REMARK   70  A    between atoms: _203  and  _205
REMARK   71  A    between atoms: _205  and  _206
REMARK   72  A    between atoms: _205  and  _208
REMARK   73  A    between atoms: _208  and  _209
REMARK   74  A    between atoms: _212  and  _214
REMARK   75  A    between atoms: _214  and  _215
REMARK   76  A    between atoms: _214  and  _217
REMARK   77  A    between atoms: _217  and  _218
REMARK   78  A    between atoms: _221  and  _223
REMARK   79  A    between atoms: _223  and  _224
REMARK   80  A    between atoms: _223  and  _226
REMARK   81  A    between atoms: _226  and  _227
REMARK   82  A    between atoms: _227  and  _228
REMARK   83  A    between atoms: _228  and  _229
REMARK   84  A    between atoms: _238  and  _240
REMARK   85  A    between atoms: _240  and  _241
REMARK   86  A    between atoms: _243  and  _245
REMARK   87  A    between atoms: _245  and  _246
REMARK   88  A    between atoms: _245  and  _248
REMARK   89  A    between atoms: _248  and  _249
REMARK   90  A    between atoms: _252  and  _254
REMARK   91  A    between atoms: _254  and  _255
REMARK   92  A    between atoms: _254  and  _257
REMARK   93  A    between atoms: _257  and  _258
REMARK   94  A    between atoms: _261  and  _263
REMARK   95  A    between atoms: _263  and  _264
REMARK   96  A    between atoms: _263  and  _266
REMARK   97  A    between atoms: _266  and  _267
REMARK   98  A    between atoms: _273  and  _275
REMARK   99  A    between atoms: _275  and  _276
REMARK  100  A    between atoms: _275  and  _278
REMARK  101  A    between atoms: _278  and  _279
REMARK  102  A    between atoms: _279  and  _280
REMARK  103  A    between atoms: _280  and  _281
REMARK  104  A    between atoms: _290  and  _292
REMARK  105  A    between atoms: _292  and  _293
REMARK  106  A    between atoms: _292  and  _295
REMARK  107  A    between atoms: _295  and  _296
REMARK  108  A    between atoms: _301  and  _302
REMARK  109  A    between atoms: _304  and  _306
REMARK  110  A    between atoms: _306  and  _307
REMARK  111  A    between atoms: _306  and  _309
REMARK  112  A    between atoms: _309  and  _310
REMARK  113  A    between atoms: _313  and  _315
REMARK  114  A    between atoms: _315  and  _316
REMARK  115  A    between atoms: _315  and  _318
REMARK  116  A    between atoms: _318  and  _319
REMARK  117  A    between atoms: _329  and  _331
REMARK  118  A    between atoms: _331  and  _332
REMARK  119  A    between atoms: _331  and  _334
REMARK  120  A    between atoms: _334  and  _335
REMARK  121  A    between atoms: _340  and  _342
REMARK  122  A    between atoms: _342  and  _343
REMARK  123  A    between atoms: _342  and  _345
REMARK  124  A    between atoms: _345  and  _346
REMARK  125  A    between atoms: _350  and  ZN_449
REMARK  126  A    between atoms: _351  and  _353
REMARK  127  A    between atoms: _353  and  _354
REMARK  128  A    between atoms: _353  and  _356
REMARK  129  A    between atoms: _356  and  _357
REMARK  130  A    between atoms: _360  and  _362
REMARK  131  A    between atoms: _362  and  _363
REMARK  132  A    between atoms: _365  and  _367
REMARK  133  A    between atoms: _367  and  _368
REMARK  134  A    between atoms: _367  and  _370
REMARK  135  A    between atoms: _370  and  _371
REMARK  136  A    between atoms: _374  and  _376
REMARK  137  A    between atoms: _376  and  _377
REMARK  138  A    between atoms: _376  and  _379
REMARK  139  A    between atoms: _379  and  _380
REMARK  140  A    between atoms: _383  and  _385
REMARK  141  A    between atoms: _385  and  _386
REMARK  142  A    between atoms: _389  and  _391
REMARK  143  A    between atoms: _391  and  _392
REMARK  144  A    between atoms: _391  and  _394
REMARK  145  A    between atoms: _394  and  _395
REMARK  146  A    between atoms: _400  and  _401
REMARK  147  A    between atoms: _403  and  _405
REMARK  148  A    between atoms: _405  and  _406
REMARK  149  A    between atoms: _405  and  _408
REMARK  150  A    between atoms: _408  and  _409
REMARK  151  A    between atoms: _409  and  _410
REMARK  152  A    between atoms: _413  and  _415
REMARK  153  A    between atoms: _415  and  _416
REMARK  154  A    between atoms: _415  and  _418
REMARK  155  A    between atoms: _418  and  _419
REMARK  156  A    between atoms: _419  and  _420
REMARK  157  A    between atoms: _420  and  _421
REMARK  158  A    between atoms: _430  and  _432
REMARK  159  A    between atoms: _432  and  _433
REMARK  160  A    between atoms: _435  and  _437
REMARK  161  A    between atoms: _437  and  _438
REMARK  162  A    between atoms: _437  and  _440
REMARK  163  A    between atoms: _440  and  _441
REMARK  164  A    between atoms: _444  and  _446
REMARK  165  A    between atoms: _446  and  _447
REMARK                            x       y       z     vdW  Elec       q    Type
REMARK                         _______ _______ _______ _____ _____    ______ ____
ROOT
ATOM      1  O   HOH     1      28.984  65.682  19.770  0.00  0.00    +0.000 OA
ENDROOT
TORSDOF 0
REMARK  Name = ../refined-set-2016/3ddg/3ddg_pocket.pdb
REMARK  165 active torsions:
REMARK  status: ('A' for Active; 'I' for Inactive)
REMARK    1  A    between atoms: _1  and  _3
REMARK    2  A    between atoms: _3  and  _4
REMARK    3  A    between atoms: _3  and  _6
REMARK    4  A    between atoms: _6  and  _7
REMARK    5  A    between atoms: _12  and  _14
REMARK    6  A    between atoms: _25  and  _28
REMARK    7  A    between atoms: _28  and  _29
REMARK    8  A    between atoms: _36  and  _37
REMARK    9  A    between atoms: _44  and  _45
REMARK   10  A    between atoms: _50  and  _52
REMARK   11  A    between atoms: _52  and  _53
REMARK   12  A    between atoms: _55  and  _57
REMARK   13  A    between atoms: _57  and  _58
REMARK   14  A    between atoms: _57  and  _60
REMARK   15  A    between atoms: _60  and  _61
REMARK   16  A    between atoms: _71  and  _73
REMARK   17  A    between atoms: _73  and  _74
REMARK   18  A    between atoms: _73  and  _76
REMARK   19  A    between atoms: _76  and  _77
REMARK   20  A    between atoms: _80  and  _82
REMARK   21  A    between atoms: _82  and  _83
REMARK   22  A    between atoms: _82  and  _85
REMARK   23  A    between atoms: _85  and  _86
REMARK   24  A    between atoms: _91  and  _92
REMARK   25  A    between atoms: _94  and  _96
REMARK   26  A    between atoms: _96  and  _97
REMARK   27  A    between atoms: _96  and  _99
REMARK   28  A    between atoms: _99  and  _100
REMARK   29  A    between atoms: _100  and  _101
REMARK   30  A    between atoms: _104  and  _106
REMARK   31  A    between atoms: _106  and  _107
REMARK   32  A    between atoms: _106  and  _109
REMARK   33  A    between atoms: _109  and  _110
REMARK   34  A    between atoms: _110  and  _111
REMARK   35  A    between atoms: _113  and  _115
REMARK   36  A    between atoms: _115  and  _116
REMARK   37  A    between atoms: _115  and  _118
REMARK   38  A    between atoms: _118  and  _119
REMARK   39  A    between atoms: _122  and  _124
REMARK   40  A    between atoms: _124  and  _125
REMARK   41  A    between atoms: _124  and  _127
REMARK   42  A    between atoms: _127  and  _128
REMARK   43  A    between atoms: _128  and  _130
REMARK   44  A    between atoms: _130  and  ZN_449
REMARK   45  A    between atoms: _132  and  _133
REMARK   46  A    between atoms: _138  and  _140
REMARK   47  A    between atoms: _140  and  _141
REMARK   48  A    between atoms: _140  and  _143
REMARK   49  A    between atoms: _143  and  _144
REMARK   50  A    between atoms: _150  and  _152
REMARK   51  A    between atoms: _152  and  _153
REMARK   52  A    between atoms: _152  and  _155
REMARK   53  A    between atoms: _155  and  _156
REMARK   54  A    between atoms: _156  and  _157
REMARK   55  A    between atoms: _157  and  _158
REMARK   56  A    between atoms: _167  and  _169
REMARK   57  A    between atoms: _169  and  _170
REMARK   58  A    between atoms: _169  and  _172
REMARK   59  A    between atoms: _172  and  _173
REMARK   60  A    between atoms: _178  and  _179
REMARK   61  A    between atoms: _181  and  _183
REMARK   62  A    between atoms: _183  and  _184
REMARK   63  A    between atoms: _183  and  _186
REMARK   64  A    between atoms: _186  and  _187
REMARK   65  A    between atoms: _189  and  _191
REMARK   66  A    between atoms: _191  and  _192
REMARK   67  A    between atoms: _191  and  _194
REMARK   68  A    between atoms: _194  and  _195
REMARK   69  A    between atoms: _200  and  _201
REMARK   70  A    between atoms: _203  and  _205
REMARK   71  A    between atoms: _205  and  _206
REMARK   72  A    between atoms: _205  and  _208
REMARK   73  A    between atoms: _208  and  _209
REMARK   74  A    between atoms: _212  and  _214
REMARK   75  A    between atoms: _214  and  _215
REMARK   76  A    between atoms: _214  and  _217
REMARK   77  A    between atoms: _217  and  _218
REMARK   78  A    between atoms: _221  and  _223
REMARK   79  A    between atoms: _223  and  _224
REMARK   80  A    between atoms: _223  and  _226
REMARK   81  A    between atoms: _226  and  _227
REMARK   82  A    between atoms: _227  and  _228
REMARK   83  A    between atoms: _228  and  _229
REMARK   84  A    between atoms: _238  and  _240
REMARK   85  A    between atoms: _240  and  _241
REMARK   86  A    between atoms: _243  and  _245
REMARK   87  A    between atoms: _245  and  _246
REMARK   88  A    between atoms: _245  and  _248
REMARK   89  A    between atoms: _248  and  _249
REMARK   90  A    between atoms: _252  and  _254
REMARK   91  A    between atoms: _254  and  _255
REMARK   92  A    between atoms: _254  and  _257
REMARK   93  A    between atoms: _257  and  _258
REMARK   94  A    between atoms: _261  and  _263
REMARK   95  A    between atoms: _263  and  _264
REMARK   96  A    between atoms: _263  and  _266
REMARK   97  A    between atoms: _266  and  _267
REMARK   98  A    between atoms: _273  and  _275
REMARK   99  A    between atoms: _275  and  _276
REMARK  100  A    between atoms: _275  and  _278
REMARK  101  A    between atoms: _278  and  _279
REMARK  102  A    between atoms: _279  and  _280
REMARK  103  A    between atoms: _280  and  _281
REMARK  104  A    between atoms: _290  and  _292
REMARK  105  A    between atoms: _292  and  _293
REMARK  106  A    between atoms: _292  and  _295
REMARK  107  A    between atoms: _295  and  _296
REMARK  108  A    between atoms: _301  and  _302
REMARK  109  A    between atoms: _304  and  _306
REMARK  110  A    between atoms: _306  and  _307
REMARK  111  A    between atoms: _306  and  _309
REMARK  112  A    between atoms: _309  and  _310
REMARK  113  A    between atoms: _313  and  _315
REMARK  114  A    between atoms: _315  and  _316
REMARK  115  A    between atoms: _315  and  _318
REMARK  116  A    between atoms: _318  and  _319
REMARK  117  A    between atoms: _329  and  _331
REMARK  118  A    between atoms: _331  and  _332
REMARK  119  A    between atoms: _331  and  _334
REMARK  120  A    between atoms: _334  and  _335
REMARK  121  A    between atoms: _340  and  _342
REMARK  122  A    between atoms: _342  and  _343
REMARK  123  A    between atoms: _342  and  _345
REMARK  124  A    between atoms: _345  and  _346
REMARK  125  A    between atoms: _350  and  ZN_449
REMARK  126  A    between atoms: _351  and  _353
REMARK  127  A    between atoms: _353  and  _354
REMARK  128  A    between atoms: _353  and  _356
REMARK  129  A    between atoms: _356  and  _357
REMARK  130  A    between atoms: _360  and  _362
REMARK  131  A    between atoms: _362  and  _363
REMARK  132  A    between atoms: _365  and  _367
REMARK  133  A    between atoms: _367  and  _368
REMARK  134  A    between atoms: _367  and  _370
REMARK  135  A    between atoms: _370  and  _371
REMARK  136  A    between atoms: _374  and  _376
REMARK  137  A    between atoms: _376  and  _377
REMARK  138  A    between atoms: _376  and  _379
REMARK  139  A    between atoms: _379  and  _380
REMARK  140  A    between atoms: _383  and  _385
REMARK  141  A    between atoms: _385  and  _386
REMARK  142  A    between atoms: _389  and  _391
REMARK  143  A    between atoms: _391  and  _392
REMARK  144  A    between atoms: _391  and  _394
REMARK  145  A    between atoms: _394  and  _395
REMARK  146  A    between atoms: _400  and  _401
REMARK  147  A    between atoms: _403  and  _405
REMARK  148  A    between atoms: _405  and  _406
REMARK  149  A    between atoms: _405  and  _408
REMARK  150  A    between atoms: _408  and  _409
REMARK  151  A    between atoms: _409  and  _410
REMARK  152  A    between atoms: _413  and  _415
REMARK  153  A    between atoms: _415  and  _416
REMARK  154  A    between atoms: _415  and  _418
REMARK  155  A    between atoms: _418  and  _419
REMARK  156  A    between atoms: _419  and  _420
REMARK  157  A    between atoms: _420  and  _421
REMARK  158  A    between atoms: _430  and  _432
REMARK  159  A    between atoms: _432  and  _433
REMARK  160  A    between atoms: _435  and  _437
REMARK  161  A    between atoms: _437  and  _438
REMARK  162  A    between atoms: _437  and  _440
REMARK  163  A    between atoms: _440  and  _441
REMARK  164  A    between atoms: _444  and  _446
REMARK  165  A    between atoms: _446  and  _447
REMARK                            x       y       z     vdW  Elec       q    Type
REMARK                         _______ _______ _______ _____ _____    ______ ____
ROOT
ATOM      1  O   HOH     1      31.964  65.445  18.669  0.00  0.00    +0.000 OA
ENDROOT
TORSDOF 0
REMARK  Name = ../refined-set-2016/3ddg/3ddg_pocket.pdb
REMARK  165 active torsions:
REMARK  status: ('A' for Active; 'I' for Inactive)
REMARK    1  A    between atoms: _1  and  _3
REMARK    2  A    between atoms: _3  and  _4
REMARK    3  A    between atoms: _3  and  _6
REMARK    4  A    between atoms: _6  and  _7
REMARK    5  A    between atoms: _12  and  _14
REMARK    6  A    between atoms: _25  and  _28
REMARK    7  A    between atoms: _28  and  _29
REMARK    8  A    between atoms: _36  and  _37
REMARK    9  A    between atoms: _44  and  _45
REMARK   10  A    between atoms: _50  and  _52
REMARK   11  A    between atoms: _52  and  _53
REMARK   12  A    between atoms: _55  and  _57
REMARK   13  A    between atoms: _57  and  _58
REMARK   14  A    between atoms: _57  and  _60
REMARK   15  A    between atoms: _60  and  _61
REMARK   16  A    between atoms: _71  and  _73
REMARK   17  A    between atoms: _73  and  _74
REMARK   18  A    between atoms: _73  and  _76
REMARK   19  A    between atoms: _76  and  _77
REMARK   20  A    between atoms: _80  and  _82
REMARK   21  A    between atoms: _82  and  _83
REMARK   22  A    between atoms: _82  and  _85
REMARK   23  A    between atoms: _85  and  _86
REMARK   24  A    between atoms: _91  and  _92
REMARK   25  A    between atoms: _94  and  _96
REMARK   26  A    between atoms: _96  and  _97
REMARK   27  A    between atoms: _96  and  _99
REMARK   28  A    between atoms: _99  and  _100
REMARK   29  A    between atoms: _100  and  _101
REMARK   30  A    between atoms: _104  and  _106
REMARK   31  A    between atoms: _106  and  _107
REMARK   32  A    between atoms: _106  and  _109
REMARK   33  A    between atoms: _109  and  _110
REMARK   34  A    between atoms: _110  and  _111
REMARK   35  A    between atoms: _113  and  _115
REMARK   36  A    between atoms: _115  and  _116
REMARK   37  A    between atoms: _115  and  _118
REMARK   38  A    between atoms: _118  and  _119
REMARK   39  A    between atoms: _122  and  _124
REMARK   40  A    between atoms: _124  and  _125
REMARK   41  A    between atoms: _124  and  _127
REMARK   42  A    between atoms: _127  and  _128
REMARK   43  A    between atoms: _128  and  _130
REMARK   44  A    between atoms: _130  and  ZN_449
REMARK   45  A    between atoms: _132  and  _133
REMARK   46  A    between atoms: _138  and  _140
REMARK   47  A    between atoms: _140  and  _141
REMARK   48  A    between atoms: _140  and  _143
REMARK   49  A    between atoms: _143  and  _144
REMARK   50  A    between atoms: _150  and  _152
REMARK   51  A    between atoms: _152  and  _153
REMARK   52  A    between atoms: _152  and  _155
REMARK   53  A    between atoms: _155  and  _156
REMARK   54  A    between atoms: _156  and  _157
REMARK   55  A    between atoms: _157  and  _158
REMARK   56  A    between atoms: _167  and  _169
REMARK   57  A    between atoms: _169  and  _170
REMARK   58  A    between atoms: _169  and  _172
REMARK   59  A    between atoms: _172  and  _173
REMARK   60  A    between atoms: _178  and  _179
REMARK   61  A    between atoms: _181  and  _183
REMARK   62  A    between atoms: _183  and  _184
REMARK   63  A    between atoms: _183  and  _186
REMARK   64  A    between atoms: _186  and  _187
REMARK   65  A    between atoms: _189  and  _191
REMARK   66  A    between atoms: _191  and  _192
REMARK   67  A    between atoms: _191  and  _194
REMARK   68  A    between atoms: _194  and  _195
REMARK   69  A    between atoms: _200  and  _201
REMARK   70  A    between atoms: _203  and  _205
REMARK   71  A    between atoms: _205  and  _206
REMARK   72  A    between atoms: _205  and  _208
REMARK   73  A    between atoms: _208  and  _209
REMARK   74  A    between atoms: _212  and  _214
REMARK   75  A    between atoms: _214  and  _215
REMARK   76  A    between atoms: _214  and  _217
REMARK   77  A    between atoms: _217  and  _218
REMARK   78  A    between atoms: _221  and  _223
REMARK   79  A    between atoms: _223  and  _224
REMARK   80  A    between atoms: _223  and  _226
REMARK   81  A    between atoms: _226  and  _227
REMARK   82  A    between atoms: _227  and  _228
REMARK   83  A    between atoms: _228  and  _229
REMARK   84  A    between atoms: _238  and  _240
REMARK   85  A    between atoms: _240  and  _241
REMARK   86  A    between atoms: _243  and  _245
REMARK   87  A    between atoms: _245  and  _246
REMARK   88  A    between atoms: _245  and  _248
REMARK   89  A    between atoms: _248  and  _249
REMARK   90  A    between atoms: _252  and  _254
REMARK   91  A    between atoms: _254  and  _255
REMARK   92  A    between atoms: _254  and  _257
REMARK   93  A    between atoms: _257  and  _258
REMARK   94  A    between atoms: _261  and  _263
REMARK   95  A    between atoms: _263  and  _264
REMARK   96  A    between atoms: _263  and  _266
REMARK   97  A    between atoms: _266  and  _267
REMARK   98  A    between atoms: _273  and  _275
REMARK   99  A    between atoms: _275  and  _276
REMARK  100  A    between atoms: _275  and  _278
REMARK  101  A    between atoms: _278  and  _279
REMARK  102  A    between atoms: _279  and  _280
REMARK  103  A    between atoms: _280  and  _281
REMARK  104  A    between atoms: _290  and  _292
REMARK  105  A    between atoms: _292  and  _293
REMARK  106  A    between atoms: _292  and  _295
REMARK  107  A    between atoms: _295  and  _296
REMARK  108  A    between atoms: _301  and  _302
REMARK  109  A    between atoms: _304  and  _306
REMARK  110  A    between atoms: _306  and  _307
REMARK  111  A    between atoms: _306  and  _309
REMARK  112  A    between atoms: _309  and  _310
REMARK  113  A    between atoms: _313  and  _315
REMARK  114  A    between atoms: _315  and  _316
REMARK  115  A    between atoms: _315  and  _318
REMARK  116  A    between atoms: _318  and  _319
REMARK  117  A    between atoms: _329  and  _331
REMARK  118  A    between atoms: _331  and  _332
REMARK  119  A    between atoms: _331  and  _334
REMARK  120  A    between atoms: _334  and  _335
REMARK  121  A    between atoms: _340  and  _342
REMARK  122  A    between atoms: _342  and  _343
REMARK  123  A    between atoms: _342  and  _345
REMARK  124  A    between atoms: _345  and  _346
REMARK  125  A    between atoms: _350  and  ZN_449
REMARK  126  A    between atoms: _351  and  _353
REMARK  127  A    between atoms: _353  and  _354
REMARK  128  A    between atoms: _353  and  _356
REMARK  129  A    between atoms: _356  and  _357
REMARK  130  A    between atoms: _360  and  _362
REMARK  131  A    between atoms: _362  and  _363
REMARK  132  A    between atoms: _365  and  _367
REMARK  133  A    between atoms: _367  and  _368
REMARK  134  A    between atoms: _367  and  _370
REMARK  135  A    between atoms: _370  and  _371
REMARK  136  A    between atoms: _374  and  _376
REMARK  137  A    between atoms: _376  and  _377
REMARK  138  A    between atoms: _376  and  _379
REMARK  139  A    between atoms: _379  and  _380
REMARK  140  A    between atoms: _383  and  _385
REMARK  141  A    between atoms: _385  and  _386
REMARK  142  A    between atoms: _389  and  _391
REMARK  143  A    between atoms: _391  and  _392
REMARK  144  A    between atoms: _391  and  _394
REMARK  145  A    between atoms: _394  and  _395
REMARK  146  A    between atoms: _400  and  _401
REMARK  147  A    between atoms: _403  and  _405
REMARK  148  A    between atoms: _405  and  _406
REMARK  149  A    between atoms: _405  and  _408
REMARK  150  A    between atoms: _408  and  _409
REMARK  151  A    between atoms: _409  and  _410
REMARK  152  A    between atoms: _413  and  _415
REMARK  153  A    between atoms: _415  and  _416
REMARK  154  A    between atoms: _415  and  _418
REMARK  155  A    between atoms: _418  and  _419
REMARK  156  A    between atoms: _419  and  _420
REMARK  157  A    between atoms: _420  and  _421
REMARK  158  A    between atoms: _430  and  _432
REMARK  159  A    between atoms: _432  and  _433
REMARK  160  A    between atoms: _435  and  _437
REMARK  161  A    between atoms: _437  and  _438
REMARK  162  A    between atoms: _437  and  _440
REMARK  163  A    between atoms: _440  and  _441
REMARK  164  A    between atoms: _444  and  _446
REMARK  165  A    between atoms: _446  and  _447
REMARK                            x       y       z     vdW  Elec       q    Type
REMARK                         _______ _______ _______ _____ _____    ______ ____
ROOT
ATOM      1  O   HOH     1      28.145  61.273  19.262  0.00  0.00    +0.000 OA
ENDROOT
TORSDOF 0
REMARK  Name = ../refined-set-2016/3ddg/3ddg_pocket.pdb
REMARK  165 active torsions:
REMARK  status: ('A' for Active; 'I' for Inactive)
REMARK    1  A    between atoms: _1  and  _3
REMARK    2  A    between atoms: _3  and  _4
REMARK    3  A    between atoms: _3  and  _6
REMARK    4  A    between atoms: _6  and  _7
REMARK    5  A    between atoms: _12  and  _14
REMARK    6  A    between atoms: _25  and  _28
REMARK    7  A    between atoms: _28  and  _29
REMARK    8  A    between atoms: _36  and  _37
REMARK    9  A    between atoms: _44  and  _45
REMARK   10  A    between atoms: _50  and  _52
REMARK   11  A    between atoms: _52  and  _53
REMARK   12  A    between atoms: _55  and  _57
REMARK   13  A    between atoms: _57  and  _58
REMARK   14  A    between atoms: _57  and  _60
REMARK   15  A    between atoms: _60  and  _61
REMARK   16  A    between atoms: _71  and  _73
REMARK   17  A    between atoms: _73  and  _74
REMARK   18  A    between atoms: _73  and  _76
REMARK   19  A    between atoms: _76  and  _77
REMARK   20  A    between atoms: _80  and  _82
REMARK   21  A    between atoms: _82  and  _83
REMARK   22  A    between atoms: _82  and  _85
REMARK   23  A    between atoms: _85  and  _86
REMARK   24  A    between atoms: _91  and  _92
REMARK   25  A    between atoms: _94  and  _96
REMARK   26  A    between atoms: _96  and  _97
REMARK   27  A    between atoms: _96  and  _99
REMARK   28  A    between atoms: _99  and  _100
REMARK   29  A    between atoms: _100  and  _101
REMARK   30  A    between atoms: _104  and  _106
REMARK   31  A    between atoms: _106  and  _107
REMARK   32  A    between atoms: _106  and  _109
REMARK   33  A    between atoms: _109  and  _110
REMARK   34  A    between atoms: _110  and  _111
REMARK   35  A    between atoms: _113  and  _115
REMARK   36  A    between atoms: _115  and  _116
REMARK   37  A    between atoms: _115  and  _118
REMARK   38  A    between atoms: _118  and  _119
REMARK   39  A    between atoms: _122  and  _124
REMARK   40  A    between atoms: _124  and  _125
REMARK   41  A    between atoms: _124  and  _127
REMARK   42  A    between atoms: _127  and  _128
REMARK   43  A    between atoms: _128  and  _130
REMARK   44  A    between atoms: _130  and  ZN_449
REMARK   45  A    between atoms: _132  and  _133
REMARK   46  A    between atoms: _138  and  _140
REMARK   47  A    between atoms: _140  and  _141
REMARK   48  A    between atoms: _140  and  _143
REMARK   49  A    between atoms: _143  and  _144
REMARK   50  A    between atoms: _150  and  _152
REMARK   51  A    between atoms: _152  and  _153
REMARK   52  A    between atoms: _152  and  _155
REMARK   53  A    between atoms: _155  and  _156
REMARK   54  A    between atoms: _156  and  _157
REMARK   55  A    between atoms: _157  and  _158
REMARK   56  A    between atoms: _167  and  _169
REMARK   57  A    between atoms: _169  and  _170
REMARK   58  A    between atoms: _169  and  _172
REMARK   59  A    between atoms: _172  and  _173
REMARK   60  A    between atoms: _178  and  _179
REMARK   61  A    between atoms: _181  and  _183
REMARK   62  A    between atoms: _183  and  _184
REMARK   63  A    between atoms: _183  and  _186
REMARK   64  A    between atoms: _186  and  _187
REMARK   65  A    between atoms: _189  and  _191
REMARK   66  A    between atoms: _191  and  _192
REMARK   67  A    between atoms: _191  and  _194
REMARK   68  A    between atoms: _194  and  _195
REMARK   69  A    between atoms: _200  and  _201
REMARK   70  A    between atoms: _203  and  _205
REMARK   71  A    between atoms: _205  and  _206
REMARK   72  A    between atoms: _205  and  _208
REMARK   73  A    between atoms: _208  and  _209
REMARK   74  A    between atoms: _212  and  _214
REMARK   75  A    between atoms: _214  and  _215
REMARK   76  A    between atoms: _214  and  _217
REMARK   77  A    between atoms: _217  and  _218
REMARK   78  A    between atoms: _221  and  _223
REMARK   79  A    between atoms: _223  and  _224
REMARK   80  A    between atoms: _223  and  _226
REMARK   81  A    between atoms: _226  and  _227
REMARK   82  A    between atoms: _227  and  _228
REMARK   83  A    between atoms: _228  and  _229
REMARK   84  A    between atoms: _238  and  _240
REMARK   85  A    between atoms: _240  and  _241
REMARK   86  A    between atoms: _243  and  _245
REMARK   87  A    between atoms: _245  and  _246
REMARK   88  A    between atoms: _245  and  _248
REMARK   89  A    between atoms: _248  and  _249
REMARK   90  A    between atoms: _252  and  _254
REMARK   91  A    between atoms: _254  and  _255
REMARK   92  A    between atoms: _254  and  _257
REMARK   93  A    between atoms: _257  and  _258
REMARK   94  A    between atoms: _261  and  _263
REMARK   95  A    between atoms: _263  and  _264
REMARK   96  A    between atoms: _263  and  _266
REMARK   97  A    between atoms: _266  and  _267
REMARK   98  A    between atoms: _273  and  _275
REMARK   99  A    between atoms: _275  and  _276
REMARK  100  A    between atoms: _275  and  _278
REMARK  101  A    between atoms: _278  and  _279
REMARK  102  A    between atoms: _279  and  _280
REMARK  103  A    between atoms: _280  and  _281
REMARK  104  A    between atoms: _290  and  _292
REMARK  105  A    between atoms: _292  and  _293
REMARK  106  A    between atoms: _292  and  _295
REMARK  107  A    between atoms: _295  and  _296
REMARK  108  A    between atoms: _301  and  _302
REMARK  109  A    between atoms: _304  and  _306
REMARK  110  A    between atoms: _306  and  _307
REMARK  111  A    between atoms: _306  and  _309
REMARK  112  A    between atoms: _309  and  _310
REMARK  113  A    between atoms: _313  and  _315
REMARK  114  A    between atoms: _315  and  _316
REMARK  115  A    between atoms: _315  and  _318
REMARK  116  A    between atoms: _318  and  _319
REMARK  117  A    between atoms: _329  and  _331
REMARK  118  A    between atoms: _331  and  _332
REMARK  119  A    between atoms: _331  and  _334
REMARK  120  A    between atoms: _334  and  _335
REMARK  121  A    between atoms: _340  and  _342
REMARK  122  A    between atoms: _342  and  _343
REMARK  123  A    between atoms: _342  and  _345
REMARK  124  A    between atoms: _345  and  _346
REMARK  125  A    between atoms: _350  and  ZN_449
REMARK  126  A    between atoms: _351  and  _353
REMARK  127  A    between atoms: _353  and  _354
REMARK  128  A    between atoms: _353  and  _356
REMARK  129  A    between atoms: _356  and  _357
REMARK  130  A    between atoms: _360  and  _362
REMARK  131  A    between atoms: _362  and  _363
REMARK  132  A    between atoms: _365  and  _367
REMARK  133  A    between atoms: _367  and  _368
REMARK  134  A    between atoms: _367  and  _370
REMARK  135  A    between atoms: _370  and  _371
REMARK  136  A    between atoms: _374  and  _376
REMARK  137  A    between atoms: _376  and  _377
REMARK  138  A    between atoms: _376  and  _379
REMARK  139  A    between atoms: _379  and  _380
REMARK  140  A    between atoms: _383  and  _385
REMARK  141  A    between atoms: _385  and  _386
REMARK  142  A    between atoms: _389  and  _391
REMARK  143  A    between atoms: _391  and  _392
REMARK  144  A    between atoms: _391  and  _394
REMARK  145  A    between atoms: _394  and  _395
REMARK  146  A    between atoms: _400  and  _401
REMARK  147  A    between atoms: _403  and  _405
REMARK  148  A    between atoms: _405  and  _406
REMARK  149  A    between atoms: _405  and  _408
REMARK  150  A    between atoms: _408  and  _409
REMARK  151  A    between atoms: _409  and  _410
REMARK  152  A    between atoms: _413  and  _415
REMARK  153  A    between atoms: _415  and  _416
REMARK  154  A    between atoms: _415  and  _418
REMARK  155  A    between atoms: _418  and  _419
REMARK  156  A    between atoms: _419  and  _420
REMARK  157  A    between atoms: _420  and  _421
REMARK  158  A    between atoms: _430  and  _432
REMARK  159  A    between atoms: _432  and  _433
REMARK  160  A    between atoms: _435  and  _437
REMARK  161  A    between atoms: _437  and  _438
REMARK  162  A    between atoms: _437  and  _440
REMARK  163  A    between atoms: _440  and  _441
REMARK  164  A    between atoms: _444  and  _446
REMARK  165  A    between atoms: _446  and  _447
REMARK                            x       y       z     vdW  Elec       q    Type
REMARK                         _______ _______ _______ _____ _____    ______ ____
ROOT
ATOM      1  O   HOH     1      23.027  62.832  16.599  0.00  0.00    +0.000 OA
ENDROOT
TORSDOF 0
REMARK  Name = ../refined-set-2016/3ddg/3ddg_pocket.pdb
REMARK  165 active torsions:
REMARK  status: ('A' for Active; 'I' for Inactive)
REMARK    1  A    between atoms: _1  and  _3
REMARK    2  A    between atoms: _3  and  _4
REMARK    3  A    between atoms: _3  and  _6
REMARK    4  A    between atoms: _6  and  _7
REMARK    5  A    between atoms: _12  and  _14
REMARK    6  A    between atoms: _25  and  _28
REMARK    7  A    between atoms: _28  and  _29
REMARK    8  A    between atoms: _36  and  _37
REMARK    9  A    between atoms: _44  and  _45
REMARK   10  A    between atoms: _50  and  _52
REMARK   11  A    between atoms: _52  and  _53
REMARK   12  A    between atoms: _55  and  _57
REMARK   13  A    between atoms: _57  and  _58
REMARK   14  A    between atoms: _57  and  _60
REMARK   15  A    between atoms: _60  and  _61
REMARK   16  A    between atoms: _71  and  _73
REMARK   17  A    between atoms: _73  and  _74
REMARK   18  A    between atoms: _73  and  _76
REMARK   19  A    between atoms: _76  and  _77
REMARK   20  A    between atoms: _80  and  _82
REMARK   21  A    between atoms: _82  and  _83
REMARK   22  A    between atoms: _82  and  _85
REMARK   23  A    between atoms: _85  and  _86
REMARK   24  A    between atoms: _91  and  _92
REMARK   25  A    between atoms: _94  and  _96
REMARK   26  A    between atoms: _96  and  _97
REMARK   27  A    between atoms: _96  and  _99
REMARK   28  A    between atoms: _99  and  _100
REMARK   29  A    between atoms: _100  and  _101
REMARK   30  A    between atoms: _104  and  _106
REMARK   31  A    between atoms: _106  and  _107
REMARK   32  A    between atoms: _106  and  _109
REMARK   33  A    between atoms: _109  and  _110
REMARK   34  A    between atoms: _110  and  _111
REMARK   35  A    between atoms: _113  and  _115
REMARK   36  A    between atoms: _115  and  _116
REMARK   37  A    between atoms: _115  and  _118
REMARK   38  A    between atoms: _118  and  _119
REMARK   39  A    between atoms: _122  and  _124
REMARK   40  A    between atoms: _124  and  _125
REMARK   41  A    between atoms: _124  and  _127
REMARK   42  A    between atoms: _127  and  _128
REMARK   43  A    between atoms: _128  and  _130
REMARK   44  A    between atoms: _130  and  ZN_449
REMARK   45  A    between atoms: _132  and  _133
REMARK   46  A    between atoms: _138  and  _140
REMARK   47  A    between atoms: _140  and  _141
REMARK   48  A    between atoms: _140  and  _143
REMARK   49  A    between atoms: _143  and  _144
REMARK   50  A    between atoms: _150  and  _152
REMARK   51  A    between atoms: _152  and  _153
REMARK   52  A    between atoms: _152  and  _155
REMARK   53  A    between atoms: _155  and  _156
REMARK   54  A    between atoms: _156  and  _157
REMARK   55  A    between atoms: _157  and  _158
REMARK   56  A    between atoms: _167  and  _169
REMARK   57  A    between atoms: _169  and  _170
REMARK   58  A    between atoms: _169  and  _172
REMARK   59  A    between atoms: _172  and  _173
REMARK   60  A    between atoms: _178  and  _179
REMARK   61  A    between atoms: _181  and  _183
REMARK   62  A    between atoms: _183  and  _184
REMARK   63  A    between atoms: _183  and  _186
REMARK   64  A    between atoms: _186  and  _187
REMARK   65  A    between atoms: _189  and  _191
REMARK   66  A    between atoms: _191  and  _192
REMARK   67  A    between atoms: _191  and  _194
REMARK   68  A    between atoms: _194  and  _195
REMARK   69  A    between atoms: _200  and  _201
REMARK   70  A    between atoms: _203  and  _205
REMARK   71  A    between atoms: _205  and  _206
REMARK   72  A    between atoms: _205  and  _208
REMARK   73  A    between atoms: _208  and  _209
REMARK   74  A    between atoms: _212  and  _214
REMARK   75  A    between atoms: _214  and  _215
REMARK   76  A    between atoms: _214  and  _217
REMARK   77  A    between atoms: _217  and  _218
REMARK   78  A    between atoms: _221  and  _223
REMARK   79  A    between atoms: _223  and  _224
REMARK   80  A    between atoms: _223  and  _226
REMARK   81  A    between atoms: _226  and  _227
REMARK   82  A    between atoms: _227  and  _228
REMARK   83  A    between atoms: _228  and  _229
REMARK   84  A    between atoms: _238  and  _240
REMARK   85  A    between atoms: _240  and  _241
REMARK   86  A    between atoms: _243  and  _245
REMARK   87  A    between atoms: _245  and  _246
REMARK   88  A    between atoms: _245  and  _248
REMARK   89  A    between atoms: _248  and  _249
REMARK   90  A    between atoms: _252  and  _254
REMARK   91  A    between atoms: _254  and  _255
REMARK   92  A    between atoms: _254  and  _257
REMARK   93  A    between atoms: _257  and  _258
REMARK   94  A    between atoms: _261  and  _263
REMARK   95  A    between atoms: _263  and  _264
REMARK   96  A    between atoms: _263  and  _266
REMARK   97  A    between atoms: _266  and  _267
REMARK   98  A    between atoms: _273  and  _275
REMARK   99  A    between atoms: _275  and  _276
REMARK  100  A    between atoms: _275  and  _278
REMARK  101  A    between atoms: _278  and  _279
REMARK  102  A    between atoms: _279  and  _280
REMARK  103  A    between atoms: _280  and  _281
REMARK  104  A    between atoms: _290  and  _292
REMARK  105  A    between atoms: _292  and  _293
REMARK  106  A    between atoms: _292  and  _295
REMARK  107  A    between atoms: _295  and  _296
REMARK  108  A    between atoms: _301  and  _302
REMARK  109  A    between atoms: _304  and  _306
REMARK  110  A    between atoms: _306  and  _307
REMARK  111  A    between atoms: _306  and  _309
REMARK  112  A    between atoms: _309  and  _310
REMARK  113  A    between atoms: _313  and  _315
REMARK  114  A    between atoms: _315  and  _316
REMARK  115  A    between atoms: _315  and  _318
REMARK  116  A    between atoms: _318  and  _319
REMARK  117  A    between atoms: _329  and  _331
REMARK  118  A    between atoms: _331  and  _332
REMARK  119  A    between atoms: _331  and  _334
REMARK  120  A    between atoms: _334  and  _335
REMARK  121  A    between atoms: _340  and  _342
REMARK  122  A    between atoms: _342  and  _343
REMARK  123  A    between atoms: _342  and  _345
REMARK  124  A    between atoms: _345  and  _346
REMARK  125  A    between atoms: _350  and  ZN_449
REMARK  126  A    between atoms: _351  and  _353
REMARK  127  A    between atoms: _353  and  _354
REMARK  128  A    between atoms: _353  and  _356
REMARK  129  A    between atoms: _356  and  _357
REMARK  130  A    between atoms: _360  and  _362
REMARK  131  A    between atoms: _362  and  _363
REMARK  132  A    between atoms: _365  and  _367
REMARK  133  A    between atoms: _367  and  _368
REMARK  134  A    between atoms: _367  and  _370
REMARK  135  A    between atoms: _370  and  _371
REMARK  136  A    between atoms: _374  and  _376
REMARK  137  A    between atoms: _376  and  _377
REMARK  138  A    between atoms: _376  and  _379
REMARK  139  A    between atoms: _379  and  _380
REMARK  140  A    between atoms: _383  and  _385
REMARK  141  A    between atoms: _385  and  _386
REMARK  142  A    between atoms: _389  and  _391
REMARK  143  A    between atoms: _391  and  _392
REMARK  144  A    between atoms: _391  and  _394
REMARK  145  A    between atoms: _394  and  _395
REMARK  146  A    between atoms: _400  and  _401
REMARK  147  A    between atoms: _403  and  _405
REMARK  148  A    between atoms: _405  and  _406
REMARK  149  A    between atoms: _405  and  _408
REMARK  150  A    between atoms: _408  and  _409
REMARK  151  A    between atoms: _409  and  _410
REMARK  152  A    between atoms: _413  and  _415
REMARK  153  A    between atoms: _415  and  _416
REMARK  154  A    between atoms: _415  and  _418
REMARK  155  A    between atoms: _418  and  _419
REMARK  156  A    between atoms: _419  and  _420
REMARK  157  A    between atoms: _420  and  _421
REMARK  158  A    between atoms: _430  and  _432
REMARK  159  A    between atoms: _432  and  _433
REMARK  160  A    between atoms: _435  and  _437
REMARK  161  A    between atoms: _437  and  _438
REMARK  162  A    between atoms: _437  and  _440
REMARK  163  A    between atoms: _440  and  _441
REMARK  164  A    between atoms: _444  and  _446
REMARK  165  A    between atoms: _446  and  _447
REMARK                            x       y       z     vdW  Elec       q    Type
REMARK                         _______ _______ _______ _____ _____    ______ ____
ROOT
ATOM      1  O   HOH     1      21.461  63.701  14.478  0.00  0.00    +0.000 OA
ENDROOT
TORSDOF 0
