REMARK  Name = ../refined-set-2016/2o4z/2o4z_pocket.pdb
REMARK  137 active torsions:
REMARK  status: ('A' for Active; 'I' for Inactive)
REMARK    1  A    between atoms: _1  and  _3
REMARK    2  A    between atoms: _3  and  _4
REMARK    3  A    between atoms: _3  and  _6
REMARK    4  A    between atoms: _6  and  _7
REMARK    5  A    between atoms: _17  and  _19
REMARK    6  A    between atoms: _19  and  _20
REMARK    7  A    between atoms: _19  and  _22
REMARK    8  A    between atoms: _22  and  _23
REMARK    9  A    between atoms: _28  and  _29
REMARK   10  A    between atoms: _31  and  _33
REMARK   11  A    between atoms: _33  and  _34
REMARK   12  A    between atoms: _33  and  _36
REMARK   13  A    between atoms: _36  and  _37
REMARK   14  A    between atoms: _40  and  _41
REMARK   15  A    between atoms: _46  and  _48
REMARK   16  A    between atoms: _48  and  _49
REMARK   17  A    between atoms: _48  and  _51
REMARK   18  A    between atoms: _51  and  _52
REMARK   19  A    between atoms: _57  and  _59
REMARK   20  A    between atoms: _59  and  _60
REMARK   21  A    between atoms: _59  and  _62
REMARK   22  A    between atoms: _62  and  _63
REMARK   23  A    between atoms: _68  and  _70
REMARK   24  A    between atoms: _70  and  _71
REMARK   25  A    between atoms: _74  and  _76
REMARK   26  A    between atoms: _76  and  _77
REMARK   27  A    between atoms: _76  and  _79
REMARK   28  A    between atoms: _79  and  _80
REMARK   29  A    between atoms: _85  and  _87
REMARK   30  A    between atoms: _87  and  _88
REMARK   31  A    between atoms: _87  and  _90
REMARK   32  A    between atoms: _90  and  _91
REMARK   33  A    between atoms: _91  and  _92
REMARK   34  A    between atoms: _97  and  _99
REMARK   35  A    between atoms: _99  and  _100
REMARK   36  A    between atoms: _99  and  _102
REMARK   37  A    between atoms: _102  and  _103
REMARK   38  A    between atoms: _109  and  _111
REMARK   39  A    between atoms: _122  and  _125
REMARK   40  A    between atoms: _125  and  _126
REMARK   41  A    between atoms: _134  and  _135
REMARK   42  A    between atoms: _143  and  _145
REMARK   43  A    between atoms: _145  and  _146
REMARK   44  A    between atoms: _145  and  _148
REMARK   45  A    between atoms: _148  and  _149
REMARK   46  A    between atoms: _149  and  _150
REMARK   47  A    between atoms: _153  and  _155
REMARK   48  A    between atoms: _155  and  _156
REMARK   49  A    between atoms: _155  and  _158
REMARK   50  A    between atoms: _158  and  _159
REMARK   51  A    between atoms: _164  and  _166
REMARK   52  A    between atoms: _166  and  _167
REMARK   53  A    between atoms: _166  and  _169
REMARK   54  A    between atoms: _169  and  _170
REMARK   55  A    between atoms: _170  and  _171
REMARK   56  A    between atoms: _174  and  _176
REMARK   57  A    between atoms: _176  and  _177
REMARK   58  A    between atoms: _176  and  _179
REMARK   59  A    between atoms: _179  and  _180
REMARK   60  A    between atoms: _183  and  _185
REMARK   61  A    between atoms: _185  and  _186
REMARK   62  A    between atoms: _185  and  _188
REMARK   63  A    between atoms: _188  and  _189
REMARK   64  A    between atoms: _190  and  ZN_390
REMARK   65  A    between atoms: _194  and  _196
REMARK   66  A    between atoms: _196  and  _197
REMARK   67  A    between atoms: _196  and  _199
REMARK   68  A    between atoms: _199  and  _200
REMARK   69  A    between atoms: _203  and  _205
REMARK   70  A    between atoms: _205  and  _206
REMARK   71  A    between atoms: _205  and  _208
REMARK   72  A    between atoms: _211  and  _213
REMARK   73  A    between atoms: _213  and  _214
REMARK   74  A    between atoms: _213  and  _216
REMARK   75  A    between atoms: _216  and  _217
REMARK   76  A    between atoms: _222  and  _224
REMARK   77  A    between atoms: _224  and  _225
REMARK   78  A    between atoms: _224  and  _227
REMARK   79  A    between atoms: _227  and  _228
REMARK   80  A    between atoms: _234  and  _236
REMARK   81  A    between atoms: _236  and  _237
REMARK   82  A    between atoms: _236  and  _239
REMARK   83  A    between atoms: _239  and  _240
REMARK   84  A    between atoms: _243  and  _245
REMARK   85  A    between atoms: _245  and  _246
REMARK   86  A    between atoms: _249  and  _251
REMARK   87  A    between atoms: _251  and  _252
REMARK   88  A    between atoms: _251  and  _254
REMARK   89  A    between atoms: _257  and  _259
REMARK   90  A    between atoms: _259  and  _260
REMARK   91  A    between atoms: _259  and  _262
REMARK   92  A    between atoms: _262  and  _263
REMARK   93  A    between atoms: _266  and  _268
REMARK   94  A    between atoms: _268  and  _269
REMARK   95  A    between atoms: _271  and  _273
REMARK   96  A    between atoms: _273  and  _274
REMARK   97  A    between atoms: _273  and  _276
REMARK   98  A    between atoms: _276  and  _277
REMARK   99  A    between atoms: _279  and  _281
REMARK  100  A    between atoms: _281  and  _282
REMARK  101  A    between atoms: _281  and  _284
REMARK  102  A    between atoms: _284  and  _285
REMARK  103  A    between atoms: _288  and  _290
REMARK  104  A    between atoms: _290  and  _291
REMARK  105  A    between atoms: _290  and  _293
REMARK  106  A    between atoms: _293  and  _294
REMARK  107  A    between atoms: _297  and  _299
REMARK  108  A    between atoms: _299  and  _300
REMARK  109  A    between atoms: _299  and  _302
REMARK  110  A    between atoms: _302  and  _303
REMARK  111  A    between atoms: _307  and  _308
REMARK  112  A    between atoms: _314  and  _315
REMARK  113  A    between atoms: _320  and  _322
REMARK  114  A    between atoms: _322  and  _323
REMARK  115  A    between atoms: _322  and  _325
REMARK  116  A    between atoms: _325  and  _326
REMARK  117  A    between atoms: _329  and  _331
REMARK  118  A    between atoms: _331  and  _332
REMARK  119  A    between atoms: _331  and  _334
REMARK  120  A    between atoms: _334  and  _335
REMARK  121  A    between atoms: _338  and  _340
REMARK  122  A    between atoms: _340  and  _341
REMARK  123  A    between atoms: _340  and  _343
REMARK  124  A    between atoms: _346  and  _348
REMARK  125  A    between atoms: _348  and  _349
REMARK  126  A    between atoms: _348  and  _351
REMARK  127  A    between atoms: _351  and  _352
REMARK  128  A    between atoms: _362  and  _364
REMARK  129  A    between atoms: _364  and  _365
REMARK  130  A    between atoms: _364  and  _367
REMARK  131  A    between atoms: _367  and  _368
REMARK  132  A    between atoms: _373  and  _375
REMARK  133  A    between atoms: _375  and  _376
REMARK  134  A    between atoms: _375  and  _378
REMARK  135  A    between atoms: _378  and  _379
REMARK  136  A    between atoms: _379  and  _380
REMARK  137  A    between atoms: _380  and  _381
REMARK                            x       y       z     vdW  Elec       q    Type
REMARK                         _______ _______ _______ _____ _____    ______ ____
ROOT
ATOM      1  CG  TRP A   1       5.731   0.147  12.017  0.00  0.00    -0.002 A 
ATOM      2  CD2 TRP A   1       4.368  -0.316  11.982  0.00  0.00    +0.013 A 
ATOM      3  CE3 TRP A   1       3.744  -1.538  12.287  0.00  0.00    +0.001 A 
ATOM      4  CZ3 TRP A   1       2.349  -1.640  12.129  0.00  0.00    +0.000 A 
ATOM      5  CH2 TRP A   1       1.584  -0.541  11.682  0.00  0.00    +0.001 A 
ATOM      6  CZ2 TRP A   1       2.175   0.668  11.383  0.00  0.00    +0.017 A 
ATOM      7  CE2 TRP A   1       3.570   0.768  11.533  0.00  0.00    +0.056 A 
ATOM      8  NE1 TRP A   1       4.409   1.830  11.312  0.00  0.00    -0.352 N 
ATOM      9  HE1 TRP A   1       4.115   2.771  10.981  0.00  0.00    +0.166 HD
ATOM     10  CD1 TRP A   1       5.700   1.453  11.598  0.00  0.00    +0.068 A 
ENDROOT
BRANCH   1  11
ATOM     11  CB  TRP A   1       6.959  -0.657  12.430  0.00  0.00    +0.053 C 
BRANCH  11  12
ATOM     12  CA  TRP A   1       7.628  -1.427  11.284  0.00  0.00    +0.137 C 
BRANCH  12  13
ATOM     13  N   TRP A   1       8.337  -0.512  10.383  0.00  0.00    -0.239 NA
ATOM     14  H   TRP A   1       8.400   0.495  10.636  0.00  0.00    +0.142 HD
ENDBRANCH  12  13
BRANCH  12  15
ATOM     15  C   TRP A   1       6.596  -2.267  10.533  0.00  0.00    +0.224 C 
ATOM     16  O   TRP A   1       5.949  -1.790   9.604  0.00  0.00    -0.287 OA
ENDBRANCH  12  15
ENDBRANCH  11  12
ENDBRANCH   1  11
TORSDOF 4
REMARK  Name = ../refined-set-2016/2o4z/2o4z_pocket.pdb
REMARK  137 active torsions:
REMARK  status: ('A' for Active; 'I' for Inactive)
REMARK    1  A    between atoms: _1  and  _3
REMARK    2  A    between atoms: _3  and  _4
REMARK    3  A    between atoms: _3  and  _6
REMARK    4  A    between atoms: _6  and  _7
REMARK    5  A    between atoms: _17  and  _19
REMARK    6  A    between atoms: _19  and  _20
REMARK    7  A    between atoms: _19  and  _22
REMARK    8  A    between atoms: _22  and  _23
REMARK    9  A    between atoms: _28  and  _29
REMARK   10  A    between atoms: _31  and  _33
REMARK   11  A    between atoms: _33  and  _34
REMARK   12  A    between atoms: _33  and  _36
REMARK   13  A    between atoms: _36  and  _37
REMARK   14  A    between atoms: _40  and  _41
REMARK   15  A    between atoms: _46  and  _48
REMARK   16  A    between atoms: _48  and  _49
REMARK   17  A    between atoms: _48  and  _51
REMARK   18  A    between atoms: _51  and  _52
REMARK   19  A    between atoms: _57  and  _59
REMARK   20  A    between atoms: _59  and  _60
REMARK   21  A    between atoms: _59  and  _62
REMARK   22  A    between atoms: _62  and  _63
REMARK   23  A    between atoms: _68  and  _70
REMARK   24  A    between atoms: _70  and  _71
REMARK   25  A    between atoms: _74  and  _76
REMARK   26  A    between atoms: _76  and  _77
REMARK   27  A    between atoms: _76  and  _79
REMARK   28  A    between atoms: _79  and  _80
REMARK   29  A    between atoms: _85  and  _87
REMARK   30  A    between atoms: _87  and  _88
REMARK   31  A    between atoms: _87  and  _90
REMARK   32  A    between atoms: _90  and  _91
REMARK   33  A    between atoms: _91  and  _92
REMARK   34  A    between atoms: _97  and  _99
REMARK   35  A    between atoms: _99  and  _100
REMARK   36  A    between atoms: _99  and  _102
REMARK   37  A    between atoms: _102  and  _103
REMARK   38  A    between atoms: _109  and  _111
REMARK   39  A    between atoms: _122  and  _125
REMARK   40  A    between atoms: _125  and  _126
REMARK   41  A    between atoms: _134  and  _135
REMARK   42  A    between atoms: _143  and  _145
REMARK   43  A    between atoms: _145  and  _146
REMARK   44  A    between atoms: _145  and  _148
REMARK   45  A    between atoms: _148  and  _149
REMARK   46  A    between atoms: _149  and  _150
REMARK   47  A    between atoms: _153  and  _155
REMARK   48  A    between atoms: _155  and  _156
REMARK   49  A    between atoms: _155  and  _158
REMARK   50  A    between atoms: _158  and  _159
REMARK   51  A    between atoms: _164  and  _166
REMARK   52  A    between atoms: _166  and  _167
REMARK   53  A    between atoms: _166  and  _169
REMARK   54  A    between atoms: _169  and  _170
REMARK   55  A    between atoms: _170  and  _171
REMARK   56  A    between atoms: _174  and  _176
REMARK   57  A    between atoms: _176  and  _177
REMARK   58  A    between atoms: _176  and  _179
REMARK   59  A    between atoms: _179  and  _180
REMARK   60  A    between atoms: _183  and  _185
REMARK   61  A    between atoms: _185  and  _186
REMARK   62  A    between atoms: _185  and  _188
REMARK   63  A    between atoms: _188  and  _189
REMARK   64  A    between atoms: _190  and  ZN_390
REMARK   65  A    between atoms: _194  and  _196
REMARK   66  A    between atoms: _196  and  _197
REMARK   67  A    between atoms: _196  and  _199
REMARK   68  A    between atoms: _199  and  _200
REMARK   69  A    between atoms: _203  and  _205
REMARK   70  A    between atoms: _205  and  _206
REMARK   71  A    between atoms: _205  and  _208
REMARK   72  A    between atoms: _211  and  _213
REMARK   73  A    between atoms: _213  and  _214
REMARK   74  A    between atoms: _213  and  _216
REMARK   75  A    between atoms: _216  and  _217
REMARK   76  A    between atoms: _222  and  _224
REMARK   77  A    between atoms: _224  and  _225
REMARK   78  A    between atoms: _224  and  _227
REMARK   79  A    between atoms: _227  and  _228
REMARK   80  A    between atoms: _234  and  _236
REMARK   81  A    between atoms: _236  and  _237
REMARK   82  A    between atoms: _236  and  _239
REMARK   83  A    between atoms: _239  and  _240
REMARK   84  A    between atoms: _243  and  _245
REMARK   85  A    between atoms: _245  and  _246
REMARK   86  A    between atoms: _249  and  _251
REMARK   87  A    between atoms: _251  and  _252
REMARK   88  A    between atoms: _251  and  _254
REMARK   89  A    between atoms: _257  and  _259
REMARK   90  A    between atoms: _259  and  _260
REMARK   91  A    between atoms: _259  and  _262
REMARK   92  A    between atoms: _262  and  _263
REMARK   93  A    between atoms: _266  and  _268
REMARK   94  A    between atoms: _268  and  _269
REMARK   95  A    between atoms: _271  and  _273
REMARK   96  A    between atoms: _273  and  _274
REMARK   97  A    between atoms: _273  and  _276
REMARK   98  A    between atoms: _276  and  _277
REMARK   99  A    between atoms: _279  and  _281
REMARK  100  A    between atoms: _281  and  _282
REMARK  101  A    between atoms: _281  and  _284
REMARK  102  A    between atoms: _284  and  _285
REMARK  103  A    between atoms: _288  and  _290
REMARK  104  A    between atoms: _290  and  _291
REMARK  105  A    between atoms: _290  and  _293
REMARK  106  A    between atoms: _293  and  _294
REMARK  107  A    between atoms: _297  and  _299
REMARK  108  A    between atoms: _299  and  _300
REMARK  109  A    between atoms: _299  and  _302
REMARK  110  A    between atoms: _302  and  _303
REMARK  111  A    between atoms: _307  and  _308
REMARK  112  A    between atoms: _314  and  _315
REMARK  113  A    between atoms: _320  and  _322
REMARK  114  A    between atoms: _322  and  _323
REMARK  115  A    between atoms: _322  and  _325
REMARK  116  A    between atoms: _325  and  _326
REMARK  117  A    between atoms: _329  and  _331
REMARK  118  A    between atoms: _331  and  _332
REMARK  119  A    between atoms: _331  and  _334
REMARK  120  A    between atoms: _334  and  _335
REMARK  121  A    between atoms: _338  and  _340
REMARK  122  A    between atoms: _340  and  _341
REMARK  123  A    between atoms: _340  and  _343
REMARK  124  A    between atoms: _346  and  _348
REMARK  125  A    between atoms: _348  and  _349
REMARK  126  A    between atoms: _348  and  _351
REMARK  127  A    between atoms: _351  and  _352
REMARK  128  A    between atoms: _362  and  _364
REMARK  129  A    between atoms: _364  and  _365
REMARK  130  A    between atoms: _364  and  _367
REMARK  131  A    between atoms: _367  and  _368
REMARK  132  A    between atoms: _373  and  _375
REMARK  133  A    between atoms: _375  and  _376
REMARK  134  A    between atoms: _375  and  _378
REMARK  135  A    between atoms: _378  and  _379
REMARK  136  A    between atoms: _379  and  _380
REMARK  137  A    between atoms: _380  and  _381
REMARK                            x       y       z     vdW  Elec       q    Type
REMARK                         _______ _______ _______ _____ _____    ______ ____
ROOT
ATOM      1  CG  TYR A   1       1.990  -7.083  11.841  0.00  0.00    -0.020 A 
ATOM      2  CD2 TYR A   1       1.567  -7.065  13.170  0.00  0.00    -0.001 A 
ATOM      3  CE2 TYR A   1       0.745  -6.075  13.642  0.00  0.00    +0.036 A 
ATOM      4  CZ  TYR A   1       0.327  -5.065  12.787  0.00  0.00    +0.134 A 
ATOM      5  CE1 TYR A   1       0.743  -5.037  11.457  0.00  0.00    +0.036 A 
ATOM      6  CD1 TYR A   1       1.575  -6.047  10.996  0.00  0.00    -0.001 A 
ENDROOT
BRANCH   4   7
ATOM      7  OH  TYR A   1      -0.505  -4.088  13.284  0.00  0.00    -0.506 OA
ATOM      8  HH  TYR A   1      -0.718  -3.441  12.566  0.00  0.00    +0.292 HD
ENDBRANCH   4   7
BRANCH   1   9
ATOM      9  CB  TYR A   1       2.915  -8.179  11.343  0.00  0.00    +0.051 C 
BRANCH   9  10
ATOM     10  CA  TYR A   1       4.397  -7.826  11.571  0.00  0.00    +0.137 C 
BRANCH  10  11
ATOM     11  N   TYR A   1       4.787  -6.697  10.722  0.00  0.00    -0.239 NA
ATOM     12  H   TYR A   1       4.852  -6.817   9.691  0.00  0.00    +0.142 HD
ENDBRANCH  10  11
BRANCH  10  13
ATOM     13  C   TYR A   1       5.325  -9.044  11.541  0.00  0.00    +0.224 C 
ATOM     14  O   TYR A   1       5.176  -9.962  12.353  0.00  0.00    -0.287 OA
ENDBRANCH  10  13
ENDBRANCH   9  10
ENDBRANCH   1   9
TORSDOF 5
REMARK  Name = ../refined-set-2016/2o4z/2o4z_pocket.pdb
REMARK  137 active torsions:
REMARK  status: ('A' for Active; 'I' for Inactive)
REMARK    1  A    between atoms: _1  and  _3
REMARK    2  A    between atoms: _3  and  _4
REMARK    3  A    between atoms: _3  and  _6
REMARK    4  A    between atoms: _6  and  _7
REMARK    5  A    between atoms: _17  and  _19
REMARK    6  A    between atoms: _19  and  _20
REMARK    7  A    between atoms: _19  and  _22
REMARK    8  A    between atoms: _22  and  _23
REMARK    9  A    between atoms: _28  and  _29
REMARK   10  A    between atoms: _31  and  _33
REMARK   11  A    between atoms: _33  and  _34
REMARK   12  A    between atoms: _33  and  _36
REMARK   13  A    between atoms: _36  and  _37
REMARK   14  A    between atoms: _40  and  _41
REMARK   15  A    between atoms: _46  and  _48
REMARK   16  A    between atoms: _48  and  _49
REMARK   17  A    between atoms: _48  and  _51
REMARK   18  A    between atoms: _51  and  _52
REMARK   19  A    between atoms: _57  and  _59
REMARK   20  A    between atoms: _59  and  _60
REMARK   21  A    between atoms: _59  and  _62
REMARK   22  A    between atoms: _62  and  _63
REMARK   23  A    between atoms: _68  and  _70
REMARK   24  A    between atoms: _70  and  _71
REMARK   25  A    between atoms: _74  and  _76
REMARK   26  A    between atoms: _76  and  _77
REMARK   27  A    between atoms: _76  and  _79
REMARK   28  A    between atoms: _79  and  _80
REMARK   29  A    between atoms: _85  and  _87
REMARK   30  A    between atoms: _87  and  _88
REMARK   31  A    between atoms: _87  and  _90
REMARK   32  A    between atoms: _90  and  _91
REMARK   33  A    between atoms: _91  and  _92
REMARK   34  A    between atoms: _97  and  _99
REMARK   35  A    between atoms: _99  and  _100
REMARK   36  A    between atoms: _99  and  _102
REMARK   37  A    between atoms: _102  and  _103
REMARK   38  A    between atoms: _109  and  _111
REMARK   39  A    between atoms: _122  and  _125
REMARK   40  A    between atoms: _125  and  _126
REMARK   41  A    between atoms: _134  and  _135
REMARK   42  A    between atoms: _143  and  _145
REMARK   43  A    between atoms: _145  and  _146
REMARK   44  A    between atoms: _145  and  _148
REMARK   45  A    between atoms: _148  and  _149
REMARK   46  A    between atoms: _149  and  _150
REMARK   47  A    between atoms: _153  and  _155
REMARK   48  A    between atoms: _155  and  _156
REMARK   49  A    between atoms: _155  and  _158
REMARK   50  A    between atoms: _158  and  _159
REMARK   51  A    between atoms: _164  and  _166
REMARK   52  A    between atoms: _166  and  _167
REMARK   53  A    between atoms: _166  and  _169
REMARK   54  A    between atoms: _169  and  _170
REMARK   55  A    between atoms: _170  and  _171
REMARK   56  A    between atoms: _174  and  _176
REMARK   57  A    between atoms: _176  and  _177
REMARK   58  A    between atoms: _176  and  _179
REMARK   59  A    between atoms: _179  and  _180
REMARK   60  A    between atoms: _183  and  _185
REMARK   61  A    between atoms: _185  and  _186
REMARK   62  A    between atoms: _185  and  _188
REMARK   63  A    between atoms: _188  and  _189
REMARK   64  A    between atoms: _190  and  ZN_390
REMARK   65  A    between atoms: _194  and  _196
REMARK   66  A    between atoms: _196  and  _197
REMARK   67  A    between atoms: _196  and  _199
REMARK   68  A    between atoms: _199  and  _200
REMARK   69  A    between atoms: _203  and  _205
REMARK   70  A    between atoms: _205  and  _206
REMARK   71  A    between atoms: _205  and  _208
REMARK   72  A    between atoms: _211  and  _213
REMARK   73  A    between atoms: _213  and  _214
REMARK   74  A    between atoms: _213  and  _216
REMARK   75  A    between atoms: _216  and  _217
REMARK   76  A    between atoms: _222  and  _224
REMARK   77  A    between atoms: _224  and  _225
REMARK   78  A    between atoms: _224  and  _227
REMARK   79  A    between atoms: _227  and  _228
REMARK   80  A    between atoms: _234  and  _236
REMARK   81  A    between atoms: _236  and  _237
REMARK   82  A    between atoms: _236  and  _239
REMARK   83  A    between atoms: _239  and  _240
REMARK   84  A    between atoms: _243  and  _245
REMARK   85  A    between atoms: _245  and  _246
REMARK   86  A    between atoms: _249  and  _251
REMARK   87  A    between atoms: _251  and  _252
REMARK   88  A    between atoms: _251  and  _254
REMARK   89  A    between atoms: _257  and  _259
REMARK   90  A    between atoms: _259  and  _260
REMARK   91  A    between atoms: _259  and  _262
REMARK   92  A    between atoms: _262  and  _263
REMARK   93  A    between atoms: _266  and  _268
REMARK   94  A    between atoms: _268  and  _269
REMARK   95  A    between atoms: _271  and  _273
REMARK   96  A    between atoms: _273  and  _274
REMARK   97  A    between atoms: _273  and  _276
REMARK   98  A    between atoms: _276  and  _277
REMARK   99  A    between atoms: _279  and  _281
REMARK  100  A    between atoms: _281  and  _282
REMARK  101  A    between atoms: _281  and  _284
REMARK  102  A    between atoms: _284  and  _285
REMARK  103  A    between atoms: _288  and  _290
REMARK  104  A    between atoms: _290  and  _291
REMARK  105  A    between atoms: _290  and  _293
REMARK  106  A    between atoms: _293  and  _294
REMARK  107  A    between atoms: _297  and  _299
REMARK  108  A    between atoms: _299  and  _300
REMARK  109  A    between atoms: _299  and  _302
REMARK  110  A    between atoms: _302  and  _303
REMARK  111  A    between atoms: _307  and  _308
REMARK  112  A    between atoms: _314  and  _315
REMARK  113  A    between atoms: _320  and  _322
REMARK  114  A    between atoms: _322  and  _323
REMARK  115  A    between atoms: _322  and  _325
REMARK  116  A    between atoms: _325  and  _326
REMARK  117  A    between atoms: _329  and  _331
REMARK  118  A    between atoms: _331  and  _332
REMARK  119  A    between atoms: _331  and  _334
REMARK  120  A    between atoms: _334  and  _335
REMARK  121  A    between atoms: _338  and  _340
REMARK  122  A    between atoms: _340  and  _341
REMARK  123  A    between atoms: _340  and  _343
REMARK  124  A    between atoms: _346  and  _348
REMARK  125  A    between atoms: _348  and  _349
REMARK  126  A    between atoms: _348  and  _351
REMARK  127  A    between atoms: _351  and  _352
REMARK  128  A    between atoms: _362  and  _364
REMARK  129  A    between atoms: _364  and  _365
REMARK  130  A    between atoms: _364  and  _367
REMARK  131  A    between atoms: _367  and  _368
REMARK  132  A    between atoms: _373  and  _375
REMARK  133  A    between atoms: _375  and  _376
REMARK  134  A    between atoms: _375  and  _378
REMARK  135  A    between atoms: _378  and  _379
REMARK  136  A    between atoms: _379  and  _380
REMARK  137  A    between atoms: _380  and  _381
REMARK                            x       y       z     vdW  Elec       q    Type
REMARK                         _______ _______ _______ _____ _____    ______ ____
ROOT
ATOM      1  C   SER A   1      -2.236  -2.976  23.159  0.00  0.00    +0.244 C 
ATOM      2  N   PRO A   2      -2.875  -4.123  22.927  0.00  0.00    -0.273 N 
ATOM      3  CA  PRO A   2      -4.050  -4.596  23.636  0.00  0.00    +0.140 C 
ATOM      4  CB  PRO A   2      -4.601  -5.625  22.658  0.00  0.00    +0.030 C 
ATOM      5  CG  PRO A   2      -3.348  -6.270  22.122  0.00  0.00    +0.024 C 
ATOM      6  CD  PRO A   2      -2.445  -5.078  21.886  0.00  0.00    +0.094 C 
ATOM      7  O   SER A   1      -1.256  -2.637  22.504  0.00  0.00    -0.273 OA
ENDROOT
BRANCH   3   8
ATOM      8  C   PRO A   2      -3.622  -5.292  24.942  0.00  0.00    +0.227 C 
ATOM      9  O   PRO A   2      -2.404  -5.398  25.222  0.00  0.00    -0.286 OA
ENDBRANCH   3   8
BRANCH   1  10
ATOM     10  CA  SER A   1      -2.775  -2.091  24.282  0.00  0.00    +0.175 C 
BRANCH  10  11
ATOM     11  N   SER A   1      -1.726  -1.235  24.808  0.00  0.00    -0.236 NA
ATOM     12  H   SER A   1      -1.239  -0.598  24.146  0.00  0.00    +0.142 HD
ENDBRANCH  10  11
BRANCH  10  13
ATOM     13  CB  SER A   1      -3.914  -1.229  23.749  0.00  0.00    +0.163 C 
BRANCH  13  14
ATOM     14  OG  SER A   1      -4.547  -0.530  24.798  0.00  0.00    -0.380 OA
ATOM     15  H   SER A   1      -4.915  -1.178  25.450  0.00  0.00    +0.211 HD
ENDBRANCH  13  14
ENDBRANCH  10  13
ENDBRANCH   1  10
TORSDOF 5
REMARK  Name = ../refined-set-2016/2o4z/2o4z_pocket.pdb
REMARK  137 active torsions:
REMARK  status: ('A' for Active; 'I' for Inactive)
REMARK    1  A    between atoms: _1  and  _3
REMARK    2  A    between atoms: _3  and  _4
REMARK    3  A    between atoms: _3  and  _6
REMARK    4  A    between atoms: _6  and  _7
REMARK    5  A    between atoms: _17  and  _19
REMARK    6  A    between atoms: _19  and  _20
REMARK    7  A    between atoms: _19  and  _22
REMARK    8  A    between atoms: _22  and  _23
REMARK    9  A    between atoms: _28  and  _29
REMARK   10  A    between atoms: _31  and  _33
REMARK   11  A    between atoms: _33  and  _34
REMARK   12  A    between atoms: _33  and  _36
REMARK   13  A    between atoms: _36  and  _37
REMARK   14  A    between atoms: _40  and  _41
REMARK   15  A    between atoms: _46  and  _48
REMARK   16  A    between atoms: _48  and  _49
REMARK   17  A    between atoms: _48  and  _51
REMARK   18  A    between atoms: _51  and  _52
REMARK   19  A    between atoms: _57  and  _59
REMARK   20  A    between atoms: _59  and  _60
REMARK   21  A    between atoms: _59  and  _62
REMARK   22  A    between atoms: _62  and  _63
REMARK   23  A    between atoms: _68  and  _70
REMARK   24  A    between atoms: _70  and  _71
REMARK   25  A    between atoms: _74  and  _76
REMARK   26  A    between atoms: _76  and  _77
REMARK   27  A    between atoms: _76  and  _79
REMARK   28  A    between atoms: _79  and  _80
REMARK   29  A    between atoms: _85  and  _87
REMARK   30  A    between atoms: _87  and  _88
REMARK   31  A    between atoms: _87  and  _90
REMARK   32  A    between atoms: _90  and  _91
REMARK   33  A    between atoms: _91  and  _92
REMARK   34  A    between atoms: _97  and  _99
REMARK   35  A    between atoms: _99  and  _100
REMARK   36  A    between atoms: _99  and  _102
REMARK   37  A    between atoms: _102  and  _103
REMARK   38  A    between atoms: _109  and  _111
REMARK   39  A    between atoms: _122  and  _125
REMARK   40  A    between atoms: _125  and  _126
REMARK   41  A    between atoms: _134  and  _135
REMARK   42  A    between atoms: _143  and  _145
REMARK   43  A    between atoms: _145  and  _146
REMARK   44  A    between atoms: _145  and  _148
REMARK   45  A    between atoms: _148  and  _149
REMARK   46  A    between atoms: _149  and  _150
REMARK   47  A    between atoms: _153  and  _155
REMARK   48  A    between atoms: _155  and  _156
REMARK   49  A    between atoms: _155  and  _158
REMARK   50  A    between atoms: _158  and  _159
REMARK   51  A    between atoms: _164  and  _166
REMARK   52  A    between atoms: _166  and  _167
REMARK   53  A    between atoms: _166  and  _169
REMARK   54  A    between atoms: _169  and  _170
REMARK   55  A    between atoms: _170  and  _171
REMARK   56  A    between atoms: _174  and  _176
REMARK   57  A    between atoms: _176  and  _177
REMARK   58  A    between atoms: _176  and  _179
REMARK   59  A    between atoms: _179  and  _180
REMARK   60  A    between atoms: _183  and  _185
REMARK   61  A    between atoms: _185  and  _186
REMARK   62  A    between atoms: _185  and  _188
REMARK   63  A    between atoms: _188  and  _189
REMARK   64  A    between atoms: _190  and  ZN_390
REMARK   65  A    between atoms: _194  and  _196
REMARK   66  A    between atoms: _196  and  _197
REMARK   67  A    between atoms: _196  and  _199
REMARK   68  A    between atoms: _199  and  _200
REMARK   69  A    between atoms: _203  and  _205
REMARK   70  A    between atoms: _205  and  _206
REMARK   71  A    between atoms: _205  and  _208
REMARK   72  A    between atoms: _211  and  _213
REMARK   73  A    between atoms: _213  and  _214
REMARK   74  A    between atoms: _213  and  _216
REMARK   75  A    between atoms: _216  and  _217
REMARK   76  A    between atoms: _222  and  _224
REMARK   77  A    between atoms: _224  and  _225
REMARK   78  A    between atoms: _224  and  _227
REMARK   79  A    between atoms: _227  and  _228
REMARK   80  A    between atoms: _234  and  _236
REMARK   81  A    between atoms: _236  and  _237
REMARK   82  A    between atoms: _236  and  _239
REMARK   83  A    between atoms: _239  and  _240
REMARK   84  A    between atoms: _243  and  _245
REMARK   85  A    between atoms: _245  and  _246
REMARK   86  A    between atoms: _249  and  _251
REMARK   87  A    between atoms: _251  and  _252
REMARK   88  A    between atoms: _251  and  _254
REMARK   89  A    between atoms: _257  and  _259
REMARK   90  A    between atoms: _259  and  _260
REMARK   91  A    between atoms: _259  and  _262
REMARK   92  A    between atoms: _262  and  _263
REMARK   93  A    between atoms: _266  and  _268
REMARK   94  A    between atoms: _268  and  _269
REMARK   95  A    between atoms: _271  and  _273
REMARK   96  A    between atoms: _273  and  _274
REMARK   97  A    between atoms: _273  and  _276
REMARK   98  A    between atoms: _276  and  _277
REMARK   99  A    between atoms: _279  and  _281
REMARK  100  A    between atoms: _281  and  _282
REMARK  101  A    between atoms: _281  and  _284
REMARK  102  A    between atoms: _284  and  _285
REMARK  103  A    between atoms: _288  and  _290
REMARK  104  A    between atoms: _290  and  _291
REMARK  105  A    between atoms: _290  and  _293
REMARK  106  A    between atoms: _293  and  _294
REMARK  107  A    between atoms: _297  and  _299
REMARK  108  A    between atoms: _299  and  _300
REMARK  109  A    between atoms: _299  and  _302
REMARK  110  A    between atoms: _302  and  _303
REMARK  111  A    between atoms: _307  and  _308
REMARK  112  A    between atoms: _314  and  _315
REMARK  113  A    between atoms: _320  and  _322
REMARK  114  A    between atoms: _322  and  _323
REMARK  115  A    between atoms: _322  and  _325
REMARK  116  A    between atoms: _325  and  _326
REMARK  117  A    between atoms: _329  and  _331
REMARK  118  A    between atoms: _331  and  _332
REMARK  119  A    between atoms: _331  and  _334
REMARK  120  A    between atoms: _334  and  _335
REMARK  121  A    between atoms: _338  and  _340
REMARK  122  A    between atoms: _340  and  _341
REMARK  123  A    between atoms: _340  and  _343
REMARK  124  A    between atoms: _346  and  _348
REMARK  125  A    between atoms: _348  and  _349
REMARK  126  A    between atoms: _348  and  _351
REMARK  127  A    between atoms: _351  and  _352
REMARK  128  A    between atoms: _362  and  _364
REMARK  129  A    between atoms: _364  and  _365
REMARK  130  A    between atoms: _364  and  _367
REMARK  131  A    between atoms: _367  and  _368
REMARK  132  A    between atoms: _373  and  _375
REMARK  133  A    between atoms: _375  and  _376
REMARK  134  A    between atoms: _375  and  _378
REMARK  135  A    between atoms: _378  and  _379
REMARK  136  A    between atoms: _379  and  _380
REMARK  137  A    between atoms: _380  and  _381
REMARK                            x       y       z     vdW  Elec       q    Type
REMARK                         _______ _______ _______ _____ _____    ______ ____
ROOT
ATOM      1  CB  ASN A   1      -2.392   1.940   5.250  0.00  0.00    +0.110 C 
ENDROOT
BRANCH   1   2
ATOM      2  CG  ASN A   1      -2.896   1.124   6.428  0.00  0.00    +0.221 C 
ATOM      3  ND2 ASN A   1      -3.735   1.739   7.246  0.00  0.00    -0.329 N 
ATOM      4 HD21 ASN A   1      -4.114   1.238   8.075  0.00  0.00    +0.145 HD
ATOM      5 HD22 ASN A   1      -4.016   2.723   7.060  0.00  0.00    +0.145 HD
ATOM      6  OD1 ASN A   1      -2.531  -0.048   6.607  0.00  0.00    -0.275 OA
ENDBRANCH   1   2
BRANCH   1   7
ATOM      7  CA  ASN A   1      -2.036   1.063   4.027  0.00  0.00    +0.142 C 
BRANCH   7   8
ATOM      8  N   ASN A   1      -3.187   0.271   3.599  0.00  0.00    -0.239 NA
ATOM      9  H   ASN A   1      -3.742  -0.254   4.304  0.00  0.00    +0.142 HD
ENDBRANCH   7   8
BRANCH   7  10
ATOM     10  C   ASN A   1      -0.793   0.213   4.283  0.00  0.00    +0.225 C 
ATOM     11  O   ASN A   1       0.139   0.653   4.961  0.00  0.00    -0.287 OA
ENDBRANCH   7  10
ENDBRANCH   1   7
TORSDOF 4
REMARK  Name = ../refined-set-2016/2o4z/2o4z_pocket.pdb
REMARK  137 active torsions:
REMARK  status: ('A' for Active; 'I' for Inactive)
REMARK    1  A    between atoms: _1  and  _3
REMARK    2  A    between atoms: _3  and  _4
REMARK    3  A    between atoms: _3  and  _6
REMARK    4  A    between atoms: _6  and  _7
REMARK    5  A    between atoms: _17  and  _19
REMARK    6  A    between atoms: _19  and  _20
REMARK    7  A    between atoms: _19  and  _22
REMARK    8  A    between atoms: _22  and  _23
REMARK    9  A    between atoms: _28  and  _29
REMARK   10  A    between atoms: _31  and  _33
REMARK   11  A    between atoms: _33  and  _34
REMARK   12  A    between atoms: _33  and  _36
REMARK   13  A    between atoms: _36  and  _37
REMARK   14  A    between atoms: _40  and  _41
REMARK   15  A    between atoms: _46  and  _48
REMARK   16  A    between atoms: _48  and  _49
REMARK   17  A    between atoms: _48  and  _51
REMARK   18  A    between atoms: _51  and  _52
REMARK   19  A    between atoms: _57  and  _59
REMARK   20  A    between atoms: _59  and  _60
REMARK   21  A    between atoms: _59  and  _62
REMARK   22  A    between atoms: _62  and  _63
REMARK   23  A    between atoms: _68  and  _70
REMARK   24  A    between atoms: _70  and  _71
REMARK   25  A    between atoms: _74  and  _76
REMARK   26  A    between atoms: _76  and  _77
REMARK   27  A    between atoms: _76  and  _79
REMARK   28  A    between atoms: _79  and  _80
REMARK   29  A    between atoms: _85  and  _87
REMARK   30  A    between atoms: _87  and  _88
REMARK   31  A    between atoms: _87  and  _90
REMARK   32  A    between atoms: _90  and  _91
REMARK   33  A    between atoms: _91  and  _92
REMARK   34  A    between atoms: _97  and  _99
REMARK   35  A    between atoms: _99  and  _100
REMARK   36  A    between atoms: _99  and  _102
REMARK   37  A    between atoms: _102  and  _103
REMARK   38  A    between atoms: _109  and  _111
REMARK   39  A    between atoms: _122  and  _125
REMARK   40  A    between atoms: _125  and  _126
REMARK   41  A    between atoms: _134  and  _135
REMARK   42  A    between atoms: _143  and  _145
REMARK   43  A    between atoms: _145  and  _146
REMARK   44  A    between atoms: _145  and  _148
REMARK   45  A    between atoms: _148  and  _149
REMARK   46  A    between atoms: _149  and  _150
REMARK   47  A    between atoms: _153  and  _155
REMARK   48  A    between atoms: _155  and  _156
REMARK   49  A    between atoms: _155  and  _158
REMARK   50  A    between atoms: _158  and  _159
REMARK   51  A    between atoms: _164  and  _166
REMARK   52  A    between atoms: _166  and  _167
REMARK   53  A    between atoms: _166  and  _169
REMARK   54  A    between atoms: _169  and  _170
REMARK   55  A    between atoms: _170  and  _171
REMARK   56  A    between atoms: _174  and  _176
REMARK   57  A    between atoms: _176  and  _177
REMARK   58  A    between atoms: _176  and  _179
REMARK   59  A    between atoms: _179  and  _180
REMARK   60  A    between atoms: _183  and  _185
REMARK   61  A    between atoms: _185  and  _186
REMARK   62  A    between atoms: _185  and  _188
REMARK   63  A    between atoms: _188  and  _189
REMARK   64  A    between atoms: _190  and  ZN_390
REMARK   65  A    between atoms: _194  and  _196
REMARK   66  A    between atoms: _196  and  _197
REMARK   67  A    between atoms: _196  and  _199
REMARK   68  A    between atoms: _199  and  _200
REMARK   69  A    between atoms: _203  and  _205
REMARK   70  A    between atoms: _205  and  _206
REMARK   71  A    between atoms: _205  and  _208
REMARK   72  A    between atoms: _211  and  _213
REMARK   73  A    between atoms: _213  and  _214
REMARK   74  A    between atoms: _213  and  _216
REMARK   75  A    between atoms: _216  and  _217
REMARK   76  A    between atoms: _222  and  _224
REMARK   77  A    between atoms: _224  and  _225
REMARK   78  A    between atoms: _224  and  _227
REMARK   79  A    between atoms: _227  and  _228
REMARK   80  A    between atoms: _234  and  _236
REMARK   81  A    between atoms: _236  and  _237
REMARK   82  A    between atoms: _236  and  _239
REMARK   83  A    between atoms: _239  and  _240
REMARK   84  A    between atoms: _243  and  _245
REMARK   85  A    between atoms: _245  and  _246
REMARK   86  A    between atoms: _249  and  _251
REMARK   87  A    between atoms: _251  and  _252
REMARK   88  A    between atoms: _251  and  _254
REMARK   89  A    between atoms: _257  and  _259
REMARK   90  A    between atoms: _259  and  _260
REMARK   91  A    between atoms: _259  and  _262
REMARK   92  A    between atoms: _262  and  _263
REMARK   93  A    between atoms: _266  and  _268
REMARK   94  A    between atoms: _268  and  _269
REMARK   95  A    between atoms: _271  and  _273
REMARK   96  A    between atoms: _273  and  _274
REMARK   97  A    between atoms: _273  and  _276
REMARK   98  A    between atoms: _276  and  _277
REMARK   99  A    between atoms: _279  and  _281
REMARK  100  A    between atoms: _281  and  _282
REMARK  101  A    between atoms: _281  and  _284
REMARK  102  A    between atoms: _284  and  _285
REMARK  103  A    between atoms: _288  and  _290
REMARK  104  A    between atoms: _290  and  _291
REMARK  105  A    between atoms: _290  and  _293
REMARK  106  A    between atoms: _293  and  _294
REMARK  107  A    between atoms: _297  and  _299
REMARK  108  A    between atoms: _299  and  _300
REMARK  109  A    between atoms: _299  and  _302
REMARK  110  A    between atoms: _302  and  _303
REMARK  111  A    between atoms: _307  and  _308
REMARK  112  A    between atoms: _314  and  _315
REMARK  113  A    between atoms: _320  and  _322
REMARK  114  A    between atoms: _322  and  _323
REMARK  115  A    between atoms: _322  and  _325
REMARK  116  A    between atoms: _325  and  _326
REMARK  117  A    between atoms: _329  and  _331
REMARK  118  A    between atoms: _331  and  _332
REMARK  119  A    between atoms: _331  and  _334
REMARK  120  A    between atoms: _334  and  _335
REMARK  121  A    between atoms: _338  and  _340
REMARK  122  A    between atoms: _340  and  _341
REMARK  123  A    between atoms: _340  and  _343
REMARK  124  A    between atoms: _346  and  _348
REMARK  125  A    between atoms: _348  and  _349
REMARK  126  A    between atoms: _348  and  _351
REMARK  127  A    between atoms: _351  and  _352
REMARK  128  A    between atoms: _362  and  _364
REMARK  129  A    between atoms: _364  and  _365
REMARK  130  A    between atoms: _364  and  _367
REMARK  131  A    between atoms: _367  and  _368
REMARK  132  A    between atoms: _373  and  _375
REMARK  133  A    between atoms: _375  and  _376
REMARK  134  A    between atoms: _375  and  _378
REMARK  135  A    between atoms: _378  and  _379
REMARK  136  A    between atoms: _379  and  _380
REMARK  137  A    between atoms: _380  and  _381
REMARK                            x       y       z     vdW  Elec       q    Type
REMARK                         _______ _______ _______ _____ _____    ______ ____
ROOT
ATOM      1  CA  HIS A   1      -0.691  -3.037   7.444  0.00  0.00    +0.151 C 
ENDROOT
BRANCH   1   2
ATOM      2  C   HIS A   1      -2.084  -3.636   7.660  0.00  0.00    +0.239 C 
ATOM      3  O   HIS A   1      -2.240  -4.707   8.259  0.00  0.00    -0.274 OA
ATOM      4  N   ALA A   2      -3.088  -2.894   7.215  0.00  0.00    -0.298 N 
ATOM      5  H   ALA A   2      -2.866  -1.955   6.827  0.00  0.00    +0.150 HD
BRANCH   4   6
ATOM      6  CA  ALA A   2      -4.483  -3.311   7.235  0.00  0.00    +0.137 C 
ATOM      7  CB  ALA A   2      -5.095  -3.050   8.603  0.00  0.00    +0.030 C 
BRANCH   6   8
ATOM      8  C   ALA A   2      -5.231  -2.542   6.124  0.00  0.00    +0.227 C 
ATOM      9  O   ALA A   2      -4.593  -1.967   5.232  0.00  0.00    -0.286 OA
ENDBRANCH   6   8
ENDBRANCH   4   6
ENDBRANCH   1   2
BRANCH   1  10
ATOM     10  N   HIS A   1      -0.572  -2.368   6.117  0.00  0.00    -0.238 NA
ATOM     11  H   HIS A   1      -1.285  -1.655   5.863  0.00  0.00    +0.142 HD
ENDBRANCH   1  10
BRANCH   1  12
ATOM     12  CB  HIS A   1      -0.389  -2.052   8.585  0.00  0.00    +0.074 C 
BRANCH  12  13
ATOM     13  CG  HIS A   1       0.814  -1.205   8.334  0.00  0.00    +0.082 A 
ATOM     14  ND1 HIS A   1       2.098  -1.635   8.606  0.00  0.00    -0.227 NA
ATOM     15  CE1 HIS A   1       2.954  -0.688   8.258  0.00  0.00    +0.199 A 
ATOM     16  NE2 HIS A   1       2.272   0.332   7.768  0.00  0.00    -0.221 NA
ATOM     17  CD2 HIS A   1       0.934   0.032   7.801  0.00  0.00    +0.115 A 
ENDBRANCH  12  13
ENDBRANCH   1  12
TORSDOF 6
REMARK  Name = ../refined-set-2016/2o4z/2o4z_pocket.pdb
REMARK  137 active torsions:
REMARK  status: ('A' for Active; 'I' for Inactive)
REMARK    1  A    between atoms: _1  and  _3
REMARK    2  A    between atoms: _3  and  _4
REMARK    3  A    between atoms: _3  and  _6
REMARK    4  A    between atoms: _6  and  _7
REMARK    5  A    between atoms: _17  and  _19
REMARK    6  A    between atoms: _19  and  _20
REMARK    7  A    between atoms: _19  and  _22
REMARK    8  A    between atoms: _22  and  _23
REMARK    9  A    between atoms: _28  and  _29
REMARK   10  A    between atoms: _31  and  _33
REMARK   11  A    between atoms: _33  and  _34
REMARK   12  A    between atoms: _33  and  _36
REMARK   13  A    between atoms: _36  and  _37
REMARK   14  A    between atoms: _40  and  _41
REMARK   15  A    between atoms: _46  and  _48
REMARK   16  A    between atoms: _48  and  _49
REMARK   17  A    between atoms: _48  and  _51
REMARK   18  A    between atoms: _51  and  _52
REMARK   19  A    between atoms: _57  and  _59
REMARK   20  A    between atoms: _59  and  _60
REMARK   21  A    between atoms: _59  and  _62
REMARK   22  A    between atoms: _62  and  _63
REMARK   23  A    between atoms: _68  and  _70
REMARK   24  A    between atoms: _70  and  _71
REMARK   25  A    between atoms: _74  and  _76
REMARK   26  A    between atoms: _76  and  _77
REMARK   27  A    between atoms: _76  and  _79
REMARK   28  A    between atoms: _79  and  _80
REMARK   29  A    between atoms: _85  and  _87
REMARK   30  A    between atoms: _87  and  _88
REMARK   31  A    between atoms: _87  and  _90
REMARK   32  A    between atoms: _90  and  _91
REMARK   33  A    between atoms: _91  and  _92
REMARK   34  A    between atoms: _97  and  _99
REMARK   35  A    between atoms: _99  and  _100
REMARK   36  A    between atoms: _99  and  _102
REMARK   37  A    between atoms: _102  and  _103
REMARK   38  A    between atoms: _109  and  _111
REMARK   39  A    between atoms: _122  and  _125
REMARK   40  A    between atoms: _125  and  _126
REMARK   41  A    between atoms: _134  and  _135
REMARK   42  A    between atoms: _143  and  _145
REMARK   43  A    between atoms: _145  and  _146
REMARK   44  A    between atoms: _145  and  _148
REMARK   45  A    between atoms: _148  and  _149
REMARK   46  A    between atoms: _149  and  _150
REMARK   47  A    between atoms: _153  and  _155
REMARK   48  A    between atoms: _155  and  _156
REMARK   49  A    between atoms: _155  and  _158
REMARK   50  A    between atoms: _158  and  _159
REMARK   51  A    between atoms: _164  and  _166
REMARK   52  A    between atoms: _166  and  _167
REMARK   53  A    between atoms: _166  and  _169
REMARK   54  A    between atoms: _169  and  _170
REMARK   55  A    between atoms: _170  and  _171
REMARK   56  A    between atoms: _174  and  _176
REMARK   57  A    between atoms: _176  and  _177
REMARK   58  A    between atoms: _176  and  _179
REMARK   59  A    between atoms: _179  and  _180
REMARK   60  A    between atoms: _183  and  _185
REMARK   61  A    between atoms: _185  and  _186
REMARK   62  A    between atoms: _185  and  _188
REMARK   63  A    between atoms: _188  and  _189
REMARK   64  A    between atoms: _190  and  ZN_390
REMARK   65  A    between atoms: _194  and  _196
REMARK   66  A    between atoms: _196  and  _197
REMARK   67  A    between atoms: _196  and  _199
REMARK   68  A    between atoms: _199  and  _200
REMARK   69  A    between atoms: _203  and  _205
REMARK   70  A    between atoms: _205  and  _206
REMARK   71  A    between atoms: _205  and  _208
REMARK   72  A    between atoms: _211  and  _213
REMARK   73  A    between atoms: _213  and  _214
REMARK   74  A    between atoms: _213  and  _216
REMARK   75  A    between atoms: _216  and  _217
REMARK   76  A    between atoms: _222  and  _224
REMARK   77  A    between atoms: _224  and  _225
REMARK   78  A    between atoms: _224  and  _227
REMARK   79  A    between atoms: _227  and  _228
REMARK   80  A    between atoms: _234  and  _236
REMARK   81  A    between atoms: _236  and  _237
REMARK   82  A    between atoms: _236  and  _239
REMARK   83  A    between atoms: _239  and  _240
REMARK   84  A    between atoms: _243  and  _245
REMARK   85  A    between atoms: _245  and  _246
REMARK   86  A    between atoms: _249  and  _251
REMARK   87  A    between atoms: _251  and  _252
REMARK   88  A    between atoms: _251  and  _254
REMARK   89  A    between atoms: _257  and  _259
REMARK   90  A    between atoms: _259  and  _260
REMARK   91  A    between atoms: _259  and  _262
REMARK   92  A    between atoms: _262  and  _263
REMARK   93  A    between atoms: _266  and  _268
REMARK   94  A    between atoms: _268  and  _269
REMARK   95  A    between atoms: _271  and  _273
REMARK   96  A    between atoms: _273  and  _274
REMARK   97  A    between atoms: _273  and  _276
REMARK   98  A    between atoms: _276  and  _277
REMARK   99  A    between atoms: _279  and  _281
REMARK  100  A    between atoms: _281  and  _282
REMARK  101  A    between atoms: _281  and  _284
REMARK  102  A    between atoms: _284  and  _285
REMARK  103  A    between atoms: _288  and  _290
REMARK  104  A    between atoms: _290  and  _291
REMARK  105  A    between atoms: _290  and  _293
REMARK  106  A    between atoms: _293  and  _294
REMARK  107  A    between atoms: _297  and  _299
REMARK  108  A    between atoms: _299  and  _300
REMARK  109  A    between atoms: _299  and  _302
REMARK  110  A    between atoms: _302  and  _303
REMARK  111  A    between atoms: _307  and  _308
REMARK  112  A    between atoms: _314  and  _315
REMARK  113  A    between atoms: _320  and  _322
REMARK  114  A    between atoms: _322  and  _323
REMARK  115  A    between atoms: _322  and  _325
REMARK  116  A    between atoms: _325  and  _326
REMARK  117  A    between atoms: _329  and  _331
REMARK  118  A    between atoms: _331  and  _332
REMARK  119  A    between atoms: _331  and  _334
REMARK  120  A    between atoms: _334  and  _335
REMARK  121  A    between atoms: _338  and  _340
REMARK  122  A    between atoms: _340  and  _341
REMARK  123  A    between atoms: _340  and  _343
REMARK  124  A    between atoms: _346  and  _348
REMARK  125  A    between atoms: _348  and  _349
REMARK  126  A    between atoms: _348  and  _351
REMARK  127  A    between atoms: _351  and  _352
REMARK  128  A    between atoms: _362  and  _364
REMARK  129  A    between atoms: _364  and  _365
REMARK  130  A    between atoms: _364  and  _367
REMARK  131  A    between atoms: _367  and  _368
REMARK  132  A    between atoms: _373  and  _375
REMARK  133  A    between atoms: _375  and  _376
REMARK  134  A    between atoms: _375  and  _378
REMARK  135  A    between atoms: _378  and  _379
REMARK  136  A    between atoms: _379  and  _380
REMARK  137  A    between atoms: _380  and  _381
REMARK                            x       y       z     vdW  Elec       q    Type
REMARK                         _______ _______ _______ _____ _____    ______ ____
ROOT
ATOM      1  CB  ASN A   1      -8.173   2.811   6.831  0.00  0.00    +0.110 C 
ENDROOT
BRANCH   1   2
ATOM      2  CG  ASN A   1      -7.114   2.605   7.928  0.00  0.00    +0.221 C 
ATOM      3  ND2 ASN A   1      -7.301   1.614   8.777  0.00  0.00    -0.329 N 
ATOM      4 HD21 ASN A   1      -6.611   1.443   9.537  0.00  0.00    +0.145 HD
ATOM      5 HD22 ASN A   1      -8.138   1.003   8.687  0.00  0.00    +0.145 HD
ATOM      6  OD1 ASN A   1      -6.138   3.356   7.993  0.00  0.00    -0.275 OA
ENDBRANCH   1   2
BRANCH   1   7
ATOM      7  CA  ASN A   1      -9.005   1.557   6.538  0.00  0.00    +0.142 C 
BRANCH   7   8
ATOM      8  N   ASN A   1      -8.223   0.588   5.831  0.00  0.00    -0.239 NA
ATOM      9  H   ASN A   1      -7.658   0.889   5.011  0.00  0.00    +0.142 HD
ENDBRANCH   7   8
BRANCH   7  10
ATOM     10  C   ASN A   1     -10.232   1.951   5.721  0.00  0.00    +0.225 C 
ATOM     11  O   ASN A   1     -10.113   2.415   4.564  0.00  0.00    -0.287 OA
ENDBRANCH   7  10
ENDBRANCH   1   7
TORSDOF 4
REMARK  Name = ../refined-set-2016/2o4z/2o4z_pocket.pdb
REMARK  137 active torsions:
REMARK  status: ('A' for Active; 'I' for Inactive)
REMARK    1  A    between atoms: _1  and  _3
REMARK    2  A    between atoms: _3  and  _4
REMARK    3  A    between atoms: _3  and  _6
REMARK    4  A    between atoms: _6  and  _7
REMARK    5  A    between atoms: _17  and  _19
REMARK    6  A    between atoms: _19  and  _20
REMARK    7  A    between atoms: _19  and  _22
REMARK    8  A    between atoms: _22  and  _23
REMARK    9  A    between atoms: _28  and  _29
REMARK   10  A    between atoms: _31  and  _33
REMARK   11  A    between atoms: _33  and  _34
REMARK   12  A    between atoms: _33  and  _36
REMARK   13  A    between atoms: _36  and  _37
REMARK   14  A    between atoms: _40  and  _41
REMARK   15  A    between atoms: _46  and  _48
REMARK   16  A    between atoms: _48  and  _49
REMARK   17  A    between atoms: _48  and  _51
REMARK   18  A    between atoms: _51  and  _52
REMARK   19  A    between atoms: _57  and  _59
REMARK   20  A    between atoms: _59  and  _60
REMARK   21  A    between atoms: _59  and  _62
REMARK   22  A    between atoms: _62  and  _63
REMARK   23  A    between atoms: _68  and  _70
REMARK   24  A    between atoms: _70  and  _71
REMARK   25  A    between atoms: _74  and  _76
REMARK   26  A    between atoms: _76  and  _77
REMARK   27  A    between atoms: _76  and  _79
REMARK   28  A    between atoms: _79  and  _80
REMARK   29  A    between atoms: _85  and  _87
REMARK   30  A    between atoms: _87  and  _88
REMARK   31  A    between atoms: _87  and  _90
REMARK   32  A    between atoms: _90  and  _91
REMARK   33  A    between atoms: _91  and  _92
REMARK   34  A    between atoms: _97  and  _99
REMARK   35  A    between atoms: _99  and  _100
REMARK   36  A    between atoms: _99  and  _102
REMARK   37  A    between atoms: _102  and  _103
REMARK   38  A    between atoms: _109  and  _111
REMARK   39  A    between atoms: _122  and  _125
REMARK   40  A    between atoms: _125  and  _126
REMARK   41  A    between atoms: _134  and  _135
REMARK   42  A    between atoms: _143  and  _145
REMARK   43  A    between atoms: _145  and  _146
REMARK   44  A    between atoms: _145  and  _148
REMARK   45  A    between atoms: _148  and  _149
REMARK   46  A    between atoms: _149  and  _150
REMARK   47  A    between atoms: _153  and  _155
REMARK   48  A    between atoms: _155  and  _156
REMARK   49  A    between atoms: _155  and  _158
REMARK   50  A    between atoms: _158  and  _159
REMARK   51  A    between atoms: _164  and  _166
REMARK   52  A    between atoms: _166  and  _167
REMARK   53  A    between atoms: _166  and  _169
REMARK   54  A    between atoms: _169  and  _170
REMARK   55  A    between atoms: _170  and  _171
REMARK   56  A    between atoms: _174  and  _176
REMARK   57  A    between atoms: _176  and  _177
REMARK   58  A    between atoms: _176  and  _179
REMARK   59  A    between atoms: _179  and  _180
REMARK   60  A    between atoms: _183  and  _185
REMARK   61  A    between atoms: _185  and  _186
REMARK   62  A    between atoms: _185  and  _188
REMARK   63  A    between atoms: _188  and  _189
REMARK   64  A    between atoms: _190  and  ZN_390
REMARK   65  A    between atoms: _194  and  _196
REMARK   66  A    between atoms: _196  and  _197
REMARK   67  A    between atoms: _196  and  _199
REMARK   68  A    between atoms: _199  and  _200
REMARK   69  A    between atoms: _203  and  _205
REMARK   70  A    between atoms: _205  and  _206
REMARK   71  A    between atoms: _205  and  _208
REMARK   72  A    between atoms: _211  and  _213
REMARK   73  A    between atoms: _213  and  _214
REMARK   74  A    between atoms: _213  and  _216
REMARK   75  A    between atoms: _216  and  _217
REMARK   76  A    between atoms: _222  and  _224
REMARK   77  A    between atoms: _224  and  _225
REMARK   78  A    between atoms: _224  and  _227
REMARK   79  A    between atoms: _227  and  _228
REMARK   80  A    between atoms: _234  and  _236
REMARK   81  A    between atoms: _236  and  _237
REMARK   82  A    between atoms: _236  and  _239
REMARK   83  A    between atoms: _239  and  _240
REMARK   84  A    between atoms: _243  and  _245
REMARK   85  A    between atoms: _245  and  _246
REMARK   86  A    between atoms: _249  and  _251
REMARK   87  A    between atoms: _251  and  _252
REMARK   88  A    between atoms: _251  and  _254
REMARK   89  A    between atoms: _257  and  _259
REMARK   90  A    between atoms: _259  and  _260
REMARK   91  A    between atoms: _259  and  _262
REMARK   92  A    between atoms: _262  and  _263
REMARK   93  A    between atoms: _266  and  _268
REMARK   94  A    between atoms: _268  and  _269
REMARK   95  A    between atoms: _271  and  _273
REMARK   96  A    between atoms: _273  and  _274
REMARK   97  A    between atoms: _273  and  _276
REMARK   98  A    between atoms: _276  and  _277
REMARK   99  A    between atoms: _279  and  _281
REMARK  100  A    between atoms: _281  and  _282
REMARK  101  A    between atoms: _281  and  _284
REMARK  102  A    between atoms: _284  and  _285
REMARK  103  A    between atoms: _288  and  _290
REMARK  104  A    between atoms: _290  and  _291
REMARK  105  A    between atoms: _290  and  _293
REMARK  106  A    between atoms: _293  and  _294
REMARK  107  A    between atoms: _297  and  _299
REMARK  108  A    between atoms: _299  and  _300
REMARK  109  A    between atoms: _299  and  _302
REMARK  110  A    between atoms: _302  and  _303
REMARK  111  A    between atoms: _307  and  _308
REMARK  112  A    between atoms: _314  and  _315
REMARK  113  A    between atoms: _320  and  _322
REMARK  114  A    between atoms: _322  and  _323
REMARK  115  A    between atoms: _322  and  _325
REMARK  116  A    between atoms: _325  and  _326
REMARK  117  A    between atoms: _329  and  _331
REMARK  118  A    between atoms: _331  and  _332
REMARK  119  A    between atoms: _331  and  _334
REMARK  120  A    between atoms: _334  and  _335
REMARK  121  A    between atoms: _338  and  _340
REMARK  122  A    between atoms: _340  and  _341
REMARK  123  A    between atoms: _340  and  _343
REMARK  124  A    between atoms: _346  and  _348
REMARK  125  A    between atoms: _348  and  _349
REMARK  126  A    between atoms: _348  and  _351
REMARK  127  A    between atoms: _351  and  _352
REMARK  128  A    between atoms: _362  and  _364
REMARK  129  A    between atoms: _364  and  _365
REMARK  130  A    between atoms: _364  and  _367
REMARK  131  A    between atoms: _367  and  _368
REMARK  132  A    between atoms: _373  and  _375
REMARK  133  A    between atoms: _375  and  _376
REMARK  134  A    between atoms: _375  and  _378
REMARK  135  A    between atoms: _378  and  _379
REMARK  136  A    between atoms: _379  and  _380
REMARK  137  A    between atoms: _380  and  _381
REMARK                            x       y       z     vdW  Elec       q    Type
REMARK                         _______ _______ _______ _____ _____    ______ ____
ROOT
ATOM      1  C   UNK A   3     -10.128  -1.417  10.259  0.00  0.00    +0.000 C 
ATOM      2  C   UNK A   3     -10.245  -2.678  11.105  0.00  0.00    +0.000 C 
ATOM      3  O   UNK A   3     -10.908  -2.676  12.153  0.00  0.00    +0.000 OA
ATOM      4  N   LEU A   4      -9.588  -3.737  10.637  0.00  0.00    +0.000 N 
ATOM      5  CA  LEU A   4      -9.540  -5.008  11.337  0.00  0.00    +0.000 C 
ATOM      6  C   LEU A   4      -8.099  -5.467  11.555  0.00  0.00    +0.000 C 
ATOM      7  N   UNK A   5      -7.955  -6.418  12.468  0.00  0.00    +0.000 N 
ATOM      8  H   UNK A   5      -8.740  -6.574  13.132  0.00  0.00    +0.000 HD
ATOM      9  C   UNK A   5      -6.775  -7.258  12.605  0.00  0.00    +0.000 C 
ATOM     10  C   UNK A   5      -6.118  -6.996  13.957  0.00  0.00    +0.000 C 
ATOM     11  C   UNK A   5      -5.881  -5.543  14.225  0.00  0.00    +0.000 A 
ATOM     12  C   UNK A   5      -6.707  -4.575  14.682  0.00  0.00    +0.000 A 
ATOM     13  N   UNK A   5      -5.981  -3.407  14.719  0.00  0.00    +0.000 N 
ATOM     14 ZN   UNK A   5      -6.663  -1.599  15.262  0.00  0.00    +0.000 Zn
ATOM     15  N   UNK A   5      -7.400  -0.726  13.719  0.00  0.00    +0.000 N 
ATOM     16  C   UNK A   5      -7.823   0.511  13.509  0.00  0.00    +0.000 A 
ATOM     17  N   UNK A   5      -8.308   0.586  12.280  0.00  0.00    +0.000 NA
ATOM     18  C   UNK A   5      -8.189  -0.646  11.671  0.00  0.00    +0.000 A 
ATOM     19  C   UNK A   5      -7.636  -1.472  12.590  0.00  0.00    +0.000 A 
ATOM     20  C   UNK A   5      -4.752  -3.655  14.301  0.00  0.00    +0.000 A 
ATOM     21  N   UNK A   5      -4.670  -4.933  13.980  0.00  0.00    +0.000 NA
ATOM     22  O   LEU A   4      -7.166  -4.996  10.904  0.00  0.00    +0.000 OA
ATOM     23  H   LEU A   4      -9.087  -3.650   9.730  0.00  0.00    +0.000 HD
ATOM     24  C   UNK A   5      -8.683  -0.909  10.289  0.00  0.00    +0.000 C 
ENDROOT
BRANCH  14  25
ATOM     25  N   UNK A   5      -8.059  -2.290  16.621  0.00  0.00    +0.000 N 
ATOM     26  C   UNK A   5      -7.718  -3.178  17.533  0.00  0.00    +0.000 A 
ATOM     27  N   UNK A   5      -8.807  -3.542  18.183  0.00  0.00    +0.000 NA
ATOM     28  C   UNK A   5      -9.886  -2.872  17.661  0.00  0.00    +0.000 A 
ATOM     29  C   UNK A   5      -9.420  -2.074  16.674  0.00  0.00    +0.000 A 
BRANCH  29  30
ATOM     30  C   UNK A   5     -10.124  -1.124  15.752  0.00  0.00    +0.000 C 
BRANCH  30  31
ATOM     31  C   UNK A   5     -11.612  -1.417  15.564  0.00  0.00    +0.000 C 
BRANCH  31  32
ATOM     32  N   UNK A   5     -11.815  -2.642  14.818  0.00  0.00    +0.000 N 
ATOM     33  C   LEU A   2     -12.467  -3.675  15.328  0.00  0.00    +0.000 C 
ATOM     34  O   LEU A   2     -12.893  -3.711  16.493  0.00  0.00    +0.000 OA
ATOM     35  H   UNK A   5     -11.437  -2.712  13.852  0.00  0.00    +0.000 HD
BRANCH  33  36
ATOM     36  CA  LEU A   2     -12.692  -4.846  14.364  0.00  0.00    +0.000 C 
BRANCH  36  37
ATOM     37  N   LEU A   2     -12.379  -6.114  14.995  0.00  0.00    +0.000 N 
ATOM     38  H   LEU A   2     -13.128  -6.566  15.558  0.00  0.00    +0.000 HD
ATOM     39  C   GLU A   1     -11.211  -6.744  14.911  0.00  0.00    +0.000 C 
ATOM     40  O   GLU A   1     -10.280  -6.386  14.205  0.00  0.00    +0.000 OA
BRANCH  39  41
ATOM     41  CA  GLU A   1     -11.085  -7.985  15.774  0.00  0.00    +0.000 C 
BRANCH  41  42
ATOM     42  N   GLU A   1     -10.553  -9.037  14.937  0.00  0.00    +0.000 NA
ATOM     43  H   GLU A   1      -9.911  -8.776  14.162  0.00  0.00    +0.000 HD
ENDBRANCH  41  42
BRANCH  41  44
ATOM     44  CB  GLU A   1     -10.136  -7.719  16.951  0.00  0.00    +0.000 C 
BRANCH  44  45
ATOM     45  CG  GLU A   1     -10.587  -6.677  17.964  0.00  0.00    +0.000 C 
BRANCH  45  46
ATOM     46  CD  GLU A   1      -9.659  -6.631  19.173  0.00  0.00    +0.000 C 
ATOM     47  OE2 GLU A   1      -9.595  -5.572  19.840  0.00  0.00    +0.000 OA
ATOM     48  OE1 GLU A   1      -8.988  -7.661  19.449  0.00  0.00    +0.000 OA
ENDBRANCH  45  46
ENDBRANCH  44  45
ENDBRANCH  41  44
ENDBRANCH  39  41
ENDBRANCH  36  37
BRANCH  36  49
ATOM     49  CB  LEU A   2     -14.164  -4.851  13.945  0.00  0.00    +0.000 C 
BRANCH  49  50
ATOM     50  CG  LEU A   2     -14.896  -3.595  13.447  0.00  0.00    +0.000 C 
ATOM     51  CD2 LEU A   2     -16.333  -3.988  13.187  0.00  0.00    +0.000 C 
ATOM     52  CD1 LEU A   2     -14.283  -3.009  12.177  0.00  0.00    +0.000 C 
ENDBRANCH  49  50
ENDBRANCH  36  49
ENDBRANCH  33  36
ENDBRANCH  31  32
BRANCH  31  53
ATOM     53  C   UNK A   5     -12.273  -0.229  14.867  0.00  0.00    +0.000 C 
ATOM     54  N   LEU A   4     -13.184   0.412  15.577  0.00  0.00    +0.000 N 
ATOM     55  H   LEU A   4     -13.441   0.038  16.513  0.00  0.00    +0.000 HD
ATOM     56  O   UNK A   5     -11.947   0.103  13.728  0.00  0.00    +0.000 OA
BRANCH  54  57
ATOM     57  CA  LEU A   4     -13.845   1.625  15.101  0.00  0.00    +0.000 C 
BRANCH  57  58
ATOM     58  C   LEU A   4     -13.272   2.786  15.893  0.00  0.00    +0.000 C 
ATOM     59  O   LEU A   4     -13.487   2.892  17.092  0.00  0.00    +0.000 OA
ATOM     60  N   UNK A   5     -12.519   3.643  15.200  0.00  0.00    +0.000 N 
ATOM     61  H   UNK A   5     -12.545   3.593  14.162  0.00  0.00    +0.000 HD
BRANCH  60  62
ATOM     62  C   UNK A   5     -11.656   4.653  15.826  0.00  0.00    +0.000 C 
BRANCH  62  63
ATOM     63  C   UNK A   5     -12.362   6.010  15.826  0.00  0.00    +0.000 C 
ATOM     64  N   HIS A   6     -12.470   6.595  17.018  0.00  0.00    +0.000 N 
ATOM     65  H   HIS A   6     -12.023   6.125  17.831  0.00  0.00    +0.000 HD
ATOM     66  O   UNK A   5     -12.804   6.495  14.774  0.00  0.00    +0.000 OA
BRANCH  64  67
ATOM     67  CA  HIS A   6     -13.173   7.851  17.259  0.00  0.00    +0.000 C 
BRANCH  67  68
ATOM     68  C   HIS A   6     -12.278   8.820  17.980  0.00  0.00    +0.000 C 
ATOM     69  O   HIS A   6     -11.504   8.410  18.853  0.00  0.00    +0.000 OA
ENDBRANCH  67  68
BRANCH  67  70
ATOM     70  CB  HIS A   6     -14.407   7.637  18.142  0.00  0.00    +0.000 C 
BRANCH  70  71
ATOM     71  CG  HIS A   6     -15.327   6.555  17.670  0.00  0.00    +0.000 A 
ATOM     72  ND1 HIS A   6     -15.063   5.214  17.873  0.00  0.00    +0.000 NA
ATOM     73  CE1 HIS A   6     -16.066   4.501  17.394  0.00  0.00    +0.000 A 
ATOM     74  NE2 HIS A   6     -16.982   5.329  16.912  0.00  0.00    +0.000 NA
ATOM     75  CD2 HIS A   6     -16.540   6.619  17.069  0.00  0.00    +0.000 A 
ENDBRANCH  70  71
ENDBRANCH  67  70
ENDBRANCH  64  67
ENDBRANCH  62  63
BRANCH  62  76
ATOM     76  C   UNK A   5     -10.257   4.718  15.131  0.00  0.00    +0.000 C 
ATOM     77  C   UNK A   5      -9.277   5.614  15.918  0.00  0.00    +0.000 C 
ATOM     78  C   UNK A   5      -9.674   3.328  15.014  0.00  0.00    +0.000 C 
ENDBRANCH  62  76
ENDBRANCH  60  62
ENDBRANCH  57  58
BRANCH  57  79
ATOM     79  CB  LEU A   4     -15.371   1.503  15.250  0.00  0.00    +0.000 C 
BRANCH  79  80
ATOM     80  CG  LEU A   4     -16.006   0.327  14.493  0.00  0.00    +0.000 C 
ATOM     81  CD2 LEU A   4     -16.930  -0.497  15.388  0.00  0.00    +0.000 C 
ATOM     82  CD1 LEU A   4     -16.769   0.835  13.268  0.00  0.00    +0.000 C 
ENDBRANCH  79  80
ENDBRANCH  57  79
ENDBRANCH  54  57
ENDBRANCH  31  53
ENDBRANCH  30  31
ENDBRANCH  29  30
ENDBRANCH  14  25
BRANCH   1  84
ATOM     83  C   LEU A   2     -11.558   0.556  10.139  0.00  0.00    +0.000 C 
ATOM     84  N   UNK A   3     -11.027  -0.445  10.833  0.00  0.00    +0.000 N 
ATOM     85  H   UNK A   3     -11.271  -0.532  11.840  0.00  0.00    +0.000 HD
ATOM     86  O   LEU A   2     -11.288   0.778   8.959  0.00  0.00    +0.000 OA
BRANCH  83  87
ATOM     87  CA  LEU A   2     -12.500   1.459  10.945  0.00  0.00    +0.000 C 
BRANCH  87  90
ATOM     88  C   GLU A   1     -12.457   3.852  11.132  0.00  0.00    +0.000 C 
ATOM     89  O   GLU A   1     -12.481   3.836  12.361  0.00  0.00    +0.000 OA
ATOM     90  N   LEU A   2     -12.690   2.773  10.383  0.00  0.00    +0.000 N 
ATOM     91  H   LEU A   2     -13.007   2.879   9.398  0.00  0.00    +0.000 HD
BRANCH  88  92
ATOM     92  CA  GLU A   1     -12.190   5.148  10.390  0.00  0.00    +0.000 C 
BRANCH  92  93
ATOM     93  N   GLU A   1     -12.495   6.290  11.238  0.00  0.00    +0.000 NA
ATOM     94  H   GLU A   1     -12.588   6.147  12.264  0.00  0.00    +0.000 HD
ENDBRANCH  92  93
BRANCH  92  95
ATOM     95  CB  GLU A   1     -10.726   5.203   9.909  0.00  0.00    +0.000 C 
BRANCH  95  96
ATOM     96  CG  GLU A   1      -9.653   5.215  11.016  0.00  0.00    +0.000 C 
BRANCH  96  97
ATOM     97  CD  GLU A   1      -8.940   3.870  11.191  0.00  0.00    +0.000 C 
ATOM     98  NE2 GLU A   1      -7.635   3.929  11.360  0.00  0.00    +0.000 N 
ATOM     99 HE21 GLU A   1      -7.087   3.054  11.485  0.00  0.00    +0.000 HD
ATOM    100 HE22 GLU A   1      -7.153   4.850  11.369  0.00  0.00    +0.000 HD
ATOM    101  OE1 GLU A   1      -9.553   2.799  11.174  0.00  0.00    +0.000 OA
ENDBRANCH  96  97
ENDBRANCH  95  96
ENDBRANCH  92  95
ENDBRANCH  88  92
ENDBRANCH  87  90
BRANCH  87 102
ATOM    102  CB  LEU A   2     -13.830   0.775  11.330  0.00  0.00    +0.000 C 
BRANCH 102 103
ATOM    103  CG  LEU A   2     -14.632   0.307  10.168  0.00  0.00    +0.000 A 
ATOM    104  CD2 LEU A   2     -15.715   1.055   9.715  0.00  0.00    +0.000 A 
ATOM    105  CE2 LEU A   2     -16.458   0.610   8.648  0.00  0.00    +0.000 A 
ATOM    106  CZ  LEU A   2     -16.122  -0.574   7.994  0.00  0.00    +0.000 A 
ATOM    107  CE1 LEU A   2     -15.039  -1.305   8.407  0.00  0.00    +0.000 A 
ATOM    108  CD1 LEU A   2     -14.300  -0.875   9.496  0.00  0.00    +0.000 A 
ENDBRANCH 102 103
ENDBRANCH  87 102
ENDBRANCH  83  87
ENDBRANCH   1  84
BRANCH   9 109
ATOM    109  C   UNK A   5      -7.273  -8.699  12.559  0.00  0.00    +0.000 C 
ATOM    110  O   UNK A   5      -8.297  -9.021  13.170  0.00  0.00    +0.000 OA
ENDBRANCH   9 109
BRANCH   5 111
ATOM    111  CB  LEU A   4     -10.262  -6.124  10.535  0.00  0.00    +0.000 C 
BRANCH 111 112
ATOM    112  CG  LEU A   4     -11.689  -5.823  10.160  0.00  0.00    +0.000 A 
ATOM    113  CD2 LEU A   4     -12.742  -6.436  10.840  0.00  0.00    +0.000 A 
ATOM    114  CE2 LEU A   4     -14.060  -6.221  10.452  0.00  0.00    +0.000 A 
ATOM    115  CZ  LEU A   4     -14.350  -5.369   9.368  0.00  0.00    +0.000 A 
ATOM    116  CE1 LEU A   4     -13.309  -4.775   8.669  0.00  0.00    +0.000 A 
ATOM    117  CD1 LEU A   4     -11.986  -5.004   9.068  0.00  0.00    +0.000 A 
ENDBRANCH 111 112
ENDBRANCH   5 111
TORSDOF 38
REMARK  Name = ../refined-set-2016/2o4z/2o4z_pocket.pdb
REMARK  137 active torsions:
REMARK  status: ('A' for Active; 'I' for Inactive)
REMARK    1  A    between atoms: _1  and  _3
REMARK    2  A    between atoms: _3  and  _4
REMARK    3  A    between atoms: _3  and  _6
REMARK    4  A    between atoms: _6  and  _7
REMARK    5  A    between atoms: _17  and  _19
REMARK    6  A    between atoms: _19  and  _20
REMARK    7  A    between atoms: _19  and  _22
REMARK    8  A    between atoms: _22  and  _23
REMARK    9  A    between atoms: _28  and  _29
REMARK   10  A    between atoms: _31  and  _33
REMARK   11  A    between atoms: _33  and  _34
REMARK   12  A    between atoms: _33  and  _36
REMARK   13  A    between atoms: _36  and  _37
REMARK   14  A    between atoms: _40  and  _41
REMARK   15  A    between atoms: _46  and  _48
REMARK   16  A    between atoms: _48  and  _49
REMARK   17  A    between atoms: _48  and  _51
REMARK   18  A    between atoms: _51  and  _52
REMARK   19  A    between atoms: _57  and  _59
REMARK   20  A    between atoms: _59  and  _60
REMARK   21  A    between atoms: _59  and  _62
REMARK   22  A    between atoms: _62  and  _63
REMARK   23  A    between atoms: _68  and  _70
REMARK   24  A    between atoms: _70  and  _71
REMARK   25  A    between atoms: _74  and  _76
REMARK   26  A    between atoms: _76  and  _77
REMARK   27  A    between atoms: _76  and  _79
REMARK   28  A    between atoms: _79  and  _80
REMARK   29  A    between atoms: _85  and  _87
REMARK   30  A    between atoms: _87  and  _88
REMARK   31  A    between atoms: _87  and  _90
REMARK   32  A    between atoms: _90  and  _91
REMARK   33  A    between atoms: _91  and  _92
REMARK   34  A    between atoms: _97  and  _99
REMARK   35  A    between atoms: _99  and  _100
REMARK   36  A    between atoms: _99  and  _102
REMARK   37  A    between atoms: _102  and  _103
REMARK   38  A    between atoms: _109  and  _111
REMARK   39  A    between atoms: _122  and  _125
REMARK   40  A    between atoms: _125  and  _126
REMARK   41  A    between atoms: _134  and  _135
REMARK   42  A    between atoms: _143  and  _145
REMARK   43  A    between atoms: _145  and  _146
REMARK   44  A    between atoms: _145  and  _148
REMARK   45  A    between atoms: _148  and  _149
REMARK   46  A    between atoms: _149  and  _150
REMARK   47  A    between atoms: _153  and  _155
REMARK   48  A    between atoms: _155  and  _156
REMARK   49  A    between atoms: _155  and  _158
REMARK   50  A    between atoms: _158  and  _159
REMARK   51  A    between atoms: _164  and  _166
REMARK   52  A    between atoms: _166  and  _167
REMARK   53  A    between atoms: _166  and  _169
REMARK   54  A    between atoms: _169  and  _170
REMARK   55  A    between atoms: _170  and  _171
REMARK   56  A    between atoms: _174  and  _176
REMARK   57  A    between atoms: _176  and  _177
REMARK   58  A    between atoms: _176  and  _179
REMARK   59  A    between atoms: _179  and  _180
REMARK   60  A    between atoms: _183  and  _185
REMARK   61  A    between atoms: _185  and  _186
REMARK   62  A    between atoms: _185  and  _188
REMARK   63  A    between atoms: _188  and  _189
REMARK   64  A    between atoms: _190  and  ZN_390
REMARK   65  A    between atoms: _194  and  _196
REMARK   66  A    between atoms: _196  and  _197
REMARK   67  A    between atoms: _196  and  _199
REMARK   68  A    between atoms: _199  and  _200
REMARK   69  A    between atoms: _203  and  _205
REMARK   70  A    between atoms: _205  and  _206
REMARK   71  A    between atoms: _205  and  _208
REMARK   72  A    between atoms: _211  and  _213
REMARK   73  A    between atoms: _213  and  _214
REMARK   74  A    between atoms: _213  and  _216
REMARK   75  A    between atoms: _216  and  _217
REMARK   76  A    between atoms: _222  and  _224
REMARK   77  A    between atoms: _224  and  _225
REMARK   78  A    between atoms: _224  and  _227
REMARK   79  A    between atoms: _227  and  _228
REMARK   80  A    between atoms: _234  and  _236
REMARK   81  A    between atoms: _236  and  _237
REMARK   82  A    between atoms: _236  and  _239
REMARK   83  A    between atoms: _239  and  _240
REMARK   84  A    between atoms: _243  and  _245
REMARK   85  A    between atoms: _245  and  _246
REMARK   86  A    between atoms: _249  and  _251
REMARK   87  A    between atoms: _251  and  _252
REMARK   88  A    between atoms: _251  and  _254
REMARK   89  A    between atoms: _257  and  _259
REMARK   90  A    between atoms: _259  and  _260
REMARK   91  A    between atoms: _259  and  _262
REMARK   92  A    between atoms: _262  and  _263
REMARK   93  A    between atoms: _266  and  _268
REMARK   94  A    between atoms: _268  and  _269
REMARK   95  A    between atoms: _271  and  _273
REMARK   96  A    between atoms: _273  and  _274
REMARK   97  A    between atoms: _273  and  _276
REMARK   98  A    between atoms: _276  and  _277
REMARK   99  A    between atoms: _279  and  _281
REMARK  100  A    between atoms: _281  and  _282
REMARK  101  A    between atoms: _281  and  _284
REMARK  102  A    between atoms: _284  and  _285
REMARK  103  A    between atoms: _288  and  _290
REMARK  104  A    between atoms: _290  and  _291
REMARK  105  A    between atoms: _290  and  _293
REMARK  106  A    between atoms: _293  and  _294
REMARK  107  A    between atoms: _297  and  _299
REMARK  108  A    between atoms: _299  and  _300
REMARK  109  A    between atoms: _299  and  _302
REMARK  110  A    between atoms: _302  and  _303
REMARK  111  A    between atoms: _307  and  _308
REMARK  112  A    between atoms: _314  and  _315
REMARK  113  A    between atoms: _320  and  _322
REMARK  114  A    between atoms: _322  and  _323
REMARK  115  A    between atoms: _322  and  _325
REMARK  116  A    between atoms: _325  and  _326
REMARK  117  A    between atoms: _329  and  _331
REMARK  118  A    between atoms: _331  and  _332
REMARK  119  A    between atoms: _331  and  _334
REMARK  120  A    between atoms: _334  and  _335
REMARK  121  A    between atoms: _338  and  _340
REMARK  122  A    between atoms: _340  and  _341
REMARK  123  A    between atoms: _340  and  _343
REMARK  124  A    between atoms: _346  and  _348
REMARK  125  A    between atoms: _348  and  _349
REMARK  126  A    between atoms: _348  and  _351
REMARK  127  A    between atoms: _351  and  _352
REMARK  128  A    between atoms: _362  and  _364
REMARK  129  A    between atoms: _364  and  _365
REMARK  130  A    between atoms: _364  and  _367
REMARK  131  A    between atoms: _367  and  _368
REMARK  132  A    between atoms: _373  and  _375
REMARK  133  A    between atoms: _375  and  _376
REMARK  134  A    between atoms: _375  and  _378
REMARK  135  A    between atoms: _378  and  _379
REMARK  136  A    between atoms: _379  and  _380
REMARK  137  A    between atoms: _380  and  _381
REMARK                            x       y       z     vdW  Elec       q    Type
REMARK                         _______ _______ _______ _____ _____    ______ ____
ROOT
ATOM      1  C   GLU A   1      -5.917  -8.337  21.084  0.00  0.00    +0.238 C 
ATOM      2  O   GLU A   1      -5.068  -8.800  21.839  0.00  0.00    -0.274 OA
ATOM      3  N   HIS A   2      -7.116  -7.953  21.501  0.00  0.00    -0.298 N 
ATOM      4  H   HIS A   2      -7.748  -7.446  20.849  0.00  0.00    +0.150 HD
ENDROOT
BRANCH   1   5
ATOM      5  CA  GLU A   1      -5.650  -8.187  19.583  0.00  0.00    +0.145 C 
BRANCH   5   6
ATOM      6  N   GLU A   1      -6.676  -8.873  18.814  0.00  0.00    -0.238 NA
ATOM      7  H   GLU A   1      -7.559  -8.371  18.592  0.00  0.00    +0.142 HD
ENDBRANCH   5   6
BRANCH   5   8
ATOM      8  CB  GLU A   1      -5.577  -6.717  19.164  0.00  0.00    +0.038 C 
BRANCH   8   9
ATOM      9  CG  GLU A   1      -5.099  -6.579  17.713  0.00  0.00    +0.116 C 
BRANCH   9  10
ATOM     10  CD  GLU A   1      -4.294  -5.341  17.488  0.00  0.00    +0.365 C 
ATOM     11  OE2 GLU A   1      -4.784  -4.239  17.841  0.00  0.00    -0.246 OA
ATOM     12  OE1 GLU A   1      -3.167  -5.462  16.956  0.00  0.00    -0.246 OA
ENDBRANCH   9  10
ENDBRANCH   8   9
ENDBRANCH   5   8
ENDBRANCH   1   5
BRANCH   3  13
ATOM     13  CA  HIS A   2      -7.554  -8.228  22.843  0.00  0.00    +0.143 C 
BRANCH  13  14
ATOM     14  C   HIS A   2      -7.875  -9.707  22.935  0.00  0.00    +0.227 C 
ATOM     15  O   HIS A   2      -8.310 -10.319  21.959  0.00  0.00    -0.286 OA
ENDBRANCH  13  14
BRANCH  13  16
ATOM     16  CB  HIS A   2      -8.758  -7.361  23.155  0.00  0.00    +0.075 C 
BRANCH  16  17
ATOM     17  CG  HIS A   2      -8.400  -5.911  23.311  0.00  0.00    +0.082 A 
ATOM     18  CD2 HIS A   2      -7.906  -5.228  24.368  0.00  0.00    +0.115 A 
ATOM     19  NE2 HIS A   2      -7.709  -3.931  23.961  0.00  0.00    -0.221 NA
ATOM     20  CE1 HIS A   2      -8.045  -3.825  22.687  0.00  0.00    +0.199 A 
ATOM     21  ND1 HIS A   2      -8.458  -5.010  22.268  0.00  0.00    -0.227 NA
ENDBRANCH  16  17
ENDBRANCH  13  16
ENDBRANCH   3  13
TORSDOF 9
REMARK  Name = ../refined-set-2016/2o4z/2o4z_pocket.pdb
REMARK  137 active torsions:
REMARK  status: ('A' for Active; 'I' for Inactive)
REMARK    1  A    between atoms: _1  and  _3
REMARK    2  A    between atoms: _3  and  _4
REMARK    3  A    between atoms: _3  and  _6
REMARK    4  A    between atoms: _6  and  _7
REMARK    5  A    between atoms: _17  and  _19
REMARK    6  A    between atoms: _19  and  _20
REMARK    7  A    between atoms: _19  and  _22
REMARK    8  A    between atoms: _22  and  _23
REMARK    9  A    between atoms: _28  and  _29
REMARK   10  A    between atoms: _31  and  _33
REMARK   11  A    between atoms: _33  and  _34
REMARK   12  A    between atoms: _33  and  _36
REMARK   13  A    between atoms: _36  and  _37
REMARK   14  A    between atoms: _40  and  _41
REMARK   15  A    between atoms: _46  and  _48
REMARK   16  A    between atoms: _48  and  _49
REMARK   17  A    between atoms: _48  and  _51
REMARK   18  A    between atoms: _51  and  _52
REMARK   19  A    between atoms: _57  and  _59
REMARK   20  A    between atoms: _59  and  _60
REMARK   21  A    between atoms: _59  and  _62
REMARK   22  A    between atoms: _62  and  _63
REMARK   23  A    between atoms: _68  and  _70
REMARK   24  A    between atoms: _70  and  _71
REMARK   25  A    between atoms: _74  and  _76
REMARK   26  A    between atoms: _76  and  _77
REMARK   27  A    between atoms: _76  and  _79
REMARK   28  A    between atoms: _79  and  _80
REMARK   29  A    between atoms: _85  and  _87
REMARK   30  A    between atoms: _87  and  _88
REMARK   31  A    between atoms: _87  and  _90
REMARK   32  A    between atoms: _90  and  _91
REMARK   33  A    between atoms: _91  and  _92
REMARK   34  A    between atoms: _97  and  _99
REMARK   35  A    between atoms: _99  and  _100
REMARK   36  A    between atoms: _99  and  _102
REMARK   37  A    between atoms: _102  and  _103
REMARK   38  A    between atoms: _109  and  _111
REMARK   39  A    between atoms: _122  and  _125
REMARK   40  A    between atoms: _125  and  _126
REMARK   41  A    between atoms: _134  and  _135
REMARK   42  A    between atoms: _143  and  _145
REMARK   43  A    between atoms: _145  and  _146
REMARK   44  A    between atoms: _145  and  _148
REMARK   45  A    between atoms: _148  and  _149
REMARK   46  A    between atoms: _149  and  _150
REMARK   47  A    between atoms: _153  and  _155
REMARK   48  A    between atoms: _155  and  _156
REMARK   49  A    between atoms: _155  and  _158
REMARK   50  A    between atoms: _158  and  _159
REMARK   51  A    between atoms: _164  and  _166
REMARK   52  A    between atoms: _166  and  _167
REMARK   53  A    between atoms: _166  and  _169
REMARK   54  A    between atoms: _169  and  _170
REMARK   55  A    between atoms: _170  and  _171
REMARK   56  A    between atoms: _174  and  _176
REMARK   57  A    between atoms: _176  and  _177
REMARK   58  A    between atoms: _176  and  _179
REMARK   59  A    between atoms: _179  and  _180
REMARK   60  A    between atoms: _183  and  _185
REMARK   61  A    between atoms: _185  and  _186
REMARK   62  A    between atoms: _185  and  _188
REMARK   63  A    between atoms: _188  and  _189
REMARK   64  A    between atoms: _190  and  ZN_390
REMARK   65  A    between atoms: _194  and  _196
REMARK   66  A    between atoms: _196  and  _197
REMARK   67  A    between atoms: _196  and  _199
REMARK   68  A    between atoms: _199  and  _200
REMARK   69  A    between atoms: _203  and  _205
REMARK   70  A    between atoms: _205  and  _206
REMARK   71  A    between atoms: _205  and  _208
REMARK   72  A    between atoms: _211  and  _213
REMARK   73  A    between atoms: _213  and  _214
REMARK   74  A    between atoms: _213  and  _216
REMARK   75  A    between atoms: _216  and  _217
REMARK   76  A    between atoms: _222  and  _224
REMARK   77  A    between atoms: _224  and  _225
REMARK   78  A    between atoms: _224  and  _227
REMARK   79  A    between atoms: _227  and  _228
REMARK   80  A    between atoms: _234  and  _236
REMARK   81  A    between atoms: _236  and  _237
REMARK   82  A    between atoms: _236  and  _239
REMARK   83  A    between atoms: _239  and  _240
REMARK   84  A    between atoms: _243  and  _245
REMARK   85  A    between atoms: _245  and  _246
REMARK   86  A    between atoms: _249  and  _251
REMARK   87  A    between atoms: _251  and  _252
REMARK   88  A    between atoms: _251  and  _254
REMARK   89  A    between atoms: _257  and  _259
REMARK   90  A    between atoms: _259  and  _260
REMARK   91  A    between atoms: _259  and  _262
REMARK   92  A    between atoms: _262  and  _263
REMARK   93  A    between atoms: _266  and  _268
REMARK   94  A    between atoms: _268  and  _269
REMARK   95  A    between atoms: _271  and  _273
REMARK   96  A    between atoms: _273  and  _274
REMARK   97  A    between atoms: _273  and  _276
REMARK   98  A    between atoms: _276  and  _277
REMARK   99  A    between atoms: _279  and  _281
REMARK  100  A    between atoms: _281  and  _282
REMARK  101  A    between atoms: _281  and  _284
REMARK  102  A    between atoms: _284  and  _285
REMARK  103  A    between atoms: _288  and  _290
REMARK  104  A    between atoms: _290  and  _291
REMARK  105  A    between atoms: _290  and  _293
REMARK  106  A    between atoms: _293  and  _294
REMARK  107  A    between atoms: _297  and  _299
REMARK  108  A    between atoms: _299  and  _300
REMARK  109  A    between atoms: _299  and  _302
REMARK  110  A    between atoms: _302  and  _303
REMARK  111  A    between atoms: _307  and  _308
REMARK  112  A    between atoms: _314  and  _315
REMARK  113  A    between atoms: _320  and  _322
REMARK  114  A    between atoms: _322  and  _323
REMARK  115  A    between atoms: _322  and  _325
REMARK  116  A    between atoms: _325  and  _326
REMARK  117  A    between atoms: _329  and  _331
REMARK  118  A    between atoms: _331  and  _332
REMARK  119  A    between atoms: _331  and  _334
REMARK  120  A    between atoms: _334  and  _335
REMARK  121  A    between atoms: _338  and  _340
REMARK  122  A    between atoms: _340  and  _341
REMARK  123  A    between atoms: _340  and  _343
REMARK  124  A    between atoms: _346  and  _348
REMARK  125  A    between atoms: _348  and  _349
REMARK  126  A    between atoms: _348  and  _351
REMARK  127  A    between atoms: _351  and  _352
REMARK  128  A    between atoms: _362  and  _364
REMARK  129  A    between atoms: _364  and  _365
REMARK  130  A    between atoms: _364  and  _367
REMARK  131  A    between atoms: _367  and  _368
REMARK  132  A    between atoms: _373  and  _375
REMARK  133  A    between atoms: _375  and  _376
REMARK  134  A    between atoms: _375  and  _378
REMARK  135  A    between atoms: _378  and  _379
REMARK  136  A    between atoms: _379  and  _380
REMARK  137  A    between atoms: _380  and  _381
REMARK                            x       y       z     vdW  Elec       q    Type
REMARK                         _______ _______ _______ _____ _____    ______ ____
ROOT
ATOM      1  CB  PHE A   1      -7.643  12.690  14.053  0.00  0.00    +0.051 C 
ENDROOT
BRANCH   1   2
ATOM      2  CG  PHE A   1      -6.934  11.400  14.382  0.00  0.00    -0.020 A 
ATOM      3  CD2 PHE A   1      -7.638  10.313  14.894  0.00  0.00    -0.004 A 
ATOM      4  CE2 PHE A   1      -6.984   9.110  15.206  0.00  0.00    -0.000 A 
ATOM      5  CZ  PHE A   1      -5.606   8.997  15.023  0.00  0.00    -0.000 A 
ATOM      6  CE1 PHE A   1      -4.898  10.072  14.520  0.00  0.00    -0.000 A 
ATOM      7  CD1 PHE A   1      -5.572  11.271  14.195  0.00  0.00    -0.004 A 
ENDBRANCH   1   2
BRANCH   1   8
ATOM      8  CA  PHE A   1      -7.634  13.726  15.210  0.00  0.00    +0.137 C 
BRANCH   8   9
ATOM      9  N   PHE A   1      -8.330  14.972  14.824  0.00  0.00    -0.239 NA
ATOM     10  H   PHE A   1      -8.753  15.031  13.876  0.00  0.00    +0.142 HD
ENDBRANCH   8   9
BRANCH   8  11
ATOM     11  C   PHE A   1      -6.193  13.970  15.687  0.00  0.00    +0.224 C 
ATOM     12  O   PHE A   1      -5.742  13.381  16.682  0.00  0.00    -0.287 OA
ENDBRANCH   8  11
ENDBRANCH   1   8
TORSDOF 4
REMARK  Name = ../refined-set-2016/2o4z/2o4z_pocket.pdb
REMARK  137 active torsions:
REMARK  status: ('A' for Active; 'I' for Inactive)
REMARK    1  A    between atoms: _1  and  _3
REMARK    2  A    between atoms: _3  and  _4
REMARK    3  A    between atoms: _3  and  _6
REMARK    4  A    between atoms: _6  and  _7
REMARK    5  A    between atoms: _17  and  _19
REMARK    6  A    between atoms: _19  and  _20
REMARK    7  A    between atoms: _19  and  _22
REMARK    8  A    between atoms: _22  and  _23
REMARK    9  A    between atoms: _28  and  _29
REMARK   10  A    between atoms: _31  and  _33
REMARK   11  A    between atoms: _33  and  _34
REMARK   12  A    between atoms: _33  and  _36
REMARK   13  A    between atoms: _36  and  _37
REMARK   14  A    between atoms: _40  and  _41
REMARK   15  A    between atoms: _46  and  _48
REMARK   16  A    between atoms: _48  and  _49
REMARK   17  A    between atoms: _48  and  _51
REMARK   18  A    between atoms: _51  and  _52
REMARK   19  A    between atoms: _57  and  _59
REMARK   20  A    between atoms: _59  and  _60
REMARK   21  A    between atoms: _59  and  _62
REMARK   22  A    between atoms: _62  and  _63
REMARK   23  A    between atoms: _68  and  _70
REMARK   24  A    between atoms: _70  and  _71
REMARK   25  A    between atoms: _74  and  _76
REMARK   26  A    between atoms: _76  and  _77
REMARK   27  A    between atoms: _76  and  _79
REMARK   28  A    between atoms: _79  and  _80
REMARK   29  A    between atoms: _85  and  _87
REMARK   30  A    between atoms: _87  and  _88
REMARK   31  A    between atoms: _87  and  _90
REMARK   32  A    between atoms: _90  and  _91
REMARK   33  A    between atoms: _91  and  _92
REMARK   34  A    between atoms: _97  and  _99
REMARK   35  A    between atoms: _99  and  _100
REMARK   36  A    between atoms: _99  and  _102
REMARK   37  A    between atoms: _102  and  _103
REMARK   38  A    between atoms: _109  and  _111
REMARK   39  A    between atoms: _122  and  _125
REMARK   40  A    between atoms: _125  and  _126
REMARK   41  A    between atoms: _134  and  _135
REMARK   42  A    between atoms: _143  and  _145
REMARK   43  A    between atoms: _145  and  _146
REMARK   44  A    between atoms: _145  and  _148
REMARK   45  A    between atoms: _148  and  _149
REMARK   46  A    between atoms: _149  and  _150
REMARK   47  A    between atoms: _153  and  _155
REMARK   48  A    between atoms: _155  and  _156
REMARK   49  A    between atoms: _155  and  _158
REMARK   50  A    between atoms: _158  and  _159
REMARK   51  A    between atoms: _164  and  _166
REMARK   52  A    between atoms: _166  and  _167
REMARK   53  A    between atoms: _166  and  _169
REMARK   54  A    between atoms: _169  and  _170
REMARK   55  A    between atoms: _170  and  _171
REMARK   56  A    between atoms: _174  and  _176
REMARK   57  A    between atoms: _176  and  _177
REMARK   58  A    between atoms: _176  and  _179
REMARK   59  A    between atoms: _179  and  _180
REMARK   60  A    between atoms: _183  and  _185
REMARK   61  A    between atoms: _185  and  _186
REMARK   62  A    between atoms: _185  and  _188
REMARK   63  A    between atoms: _188  and  _189
REMARK   64  A    between atoms: _190  and  ZN_390
REMARK   65  A    between atoms: _194  and  _196
REMARK   66  A    between atoms: _196  and  _197
REMARK   67  A    between atoms: _196  and  _199
REMARK   68  A    between atoms: _199  and  _200
REMARK   69  A    between atoms: _203  and  _205
REMARK   70  A    between atoms: _205  and  _206
REMARK   71  A    between atoms: _205  and  _208
REMARK   72  A    between atoms: _211  and  _213
REMARK   73  A    between atoms: _213  and  _214
REMARK   74  A    between atoms: _213  and  _216
REMARK   75  A    between atoms: _216  and  _217
REMARK   76  A    between atoms: _222  and  _224
REMARK   77  A    between atoms: _224  and  _225
REMARK   78  A    between atoms: _224  and  _227
REMARK   79  A    between atoms: _227  and  _228
REMARK   80  A    between atoms: _234  and  _236
REMARK   81  A    between atoms: _236  and  _237
REMARK   82  A    between atoms: _236  and  _239
REMARK   83  A    between atoms: _239  and  _240
REMARK   84  A    between atoms: _243  and  _245
REMARK   85  A    between atoms: _245  and  _246
REMARK   86  A    between atoms: _249  and  _251
REMARK   87  A    between atoms: _251  and  _252
REMARK   88  A    between atoms: _251  and  _254
REMARK   89  A    between atoms: _257  and  _259
REMARK   90  A    between atoms: _259  and  _260
REMARK   91  A    between atoms: _259  and  _262
REMARK   92  A    between atoms: _262  and  _263
REMARK   93  A    between atoms: _266  and  _268
REMARK   94  A    between atoms: _268  and  _269
REMARK   95  A    between atoms: _271  and  _273
REMARK   96  A    between atoms: _273  and  _274
REMARK   97  A    between atoms: _273  and  _276
REMARK   98  A    between atoms: _276  and  _277
REMARK   99  A    between atoms: _279  and  _281
REMARK  100  A    between atoms: _281  and  _282
REMARK  101  A    between atoms: _281  and  _284
REMARK  102  A    between atoms: _284  and  _285
REMARK  103  A    between atoms: _288  and  _290
REMARK  104  A    between atoms: _290  and  _291
REMARK  105  A    between atoms: _290  and  _293
REMARK  106  A    between atoms: _293  and  _294
REMARK  107  A    between atoms: _297  and  _299
REMARK  108  A    between atoms: _299  and  _300
REMARK  109  A    between atoms: _299  and  _302
REMARK  110  A    between atoms: _302  and  _303
REMARK  111  A    between atoms: _307  and  _308
REMARK  112  A    between atoms: _314  and  _315
REMARK  113  A    between atoms: _320  and  _322
REMARK  114  A    between atoms: _322  and  _323
REMARK  115  A    between atoms: _322  and  _325
REMARK  116  A    between atoms: _325  and  _326
REMARK  117  A    between atoms: _329  and  _331
REMARK  118  A    between atoms: _331  and  _332
REMARK  119  A    between atoms: _331  and  _334
REMARK  120  A    between atoms: _334  and  _335
REMARK  121  A    between atoms: _338  and  _340
REMARK  122  A    between atoms: _340  and  _341
REMARK  123  A    between atoms: _340  and  _343
REMARK  124  A    between atoms: _346  and  _348
REMARK  125  A    between atoms: _348  and  _349
REMARK  126  A    between atoms: _348  and  _351
REMARK  127  A    between atoms: _351  and  _352
REMARK  128  A    between atoms: _362  and  _364
REMARK  129  A    between atoms: _364  and  _365
REMARK  130  A    between atoms: _364  and  _367
REMARK  131  A    between atoms: _367  and  _368
REMARK  132  A    between atoms: _373  and  _375
REMARK  133  A    between atoms: _375  and  _376
REMARK  134  A    between atoms: _375  and  _378
REMARK  135  A    between atoms: _378  and  _379
REMARK  136  A    between atoms: _379  and  _380
REMARK  137  A    between atoms: _380  and  _381
REMARK                            x       y       z     vdW  Elec       q    Type
REMARK                         _______ _______ _______ _____ _____    ______ ____
ROOT
ATOM      1  C   ALA A   2     -12.170   5.122  20.739  0.00  0.00    +0.241 C 
ATOM      2  N   VAL A   3     -11.718   3.904  21.011  0.00  0.00    -0.297 N 
ATOM      3  H   VAL A   3     -11.308   3.706  21.946  0.00  0.00    +0.150 HD
ATOM      4  O   ALA A   2     -12.593   5.444  19.631  0.00  0.00    -0.273 OA
ENDROOT
BRANCH   1   5
ATOM      5  CA  ALA A   2     -12.088   6.142  21.860  0.00  0.00    +0.149 C 
ATOM      6  CB  ALA A   2     -13.486   6.654  22.196  0.00  0.00    +0.031 C 
BRANCH   5   9
ATOM      7  C   LEU A   1     -10.255   7.785  22.128  0.00  0.00    +0.238 C 
ATOM      8  O   LEU A   1     -10.071   7.547  23.320  0.00  0.00    -0.274 OA
ATOM      9  N   ALA A   2     -11.227   7.233  21.399  0.00  0.00    -0.297 N 
ATOM     10  H   ALA A   2     -11.383   7.602  20.439  0.00  0.00    +0.150 HD
BRANCH   7  11
ATOM     11  CA  LEU A   1      -9.368   8.775  21.399  0.00  0.00    +0.145 C 
BRANCH  11  12
ATOM     12  N   LEU A   1      -8.810   9.808  22.283  0.00  0.00    -0.238 NA
ATOM     13  H   LEU A   1      -8.237   9.523  23.103  0.00  0.00    +0.142 HD
ENDBRANCH  11  12
BRANCH  11  14
ATOM     14  CB  LEU A   1      -8.252   8.006  20.685  0.00  0.00    +0.026 C 
BRANCH  14  15
ATOM     15  CG  LEU A   1      -7.368   8.682  19.623  0.00  0.00    +0.002 C 
ATOM     16  CD2 LEU A   1      -6.651   7.600  18.833  0.00  0.00    +0.000 C 
ATOM     17  CD1 LEU A   1      -8.138   9.634  18.691  0.00  0.00    +0.000 C 
ENDBRANCH  14  15
ENDBRANCH  11  14
ENDBRANCH   7  11
ENDBRANCH   5   9
ENDBRANCH   1   5
BRANCH   2  18
ATOM     18  CA  VAL A   3     -11.788   2.837  20.014  0.00  0.00    +0.149 C 
BRANCH  18  19
ATOM     19  C   VAL A   3     -12.758   1.779  20.540  0.00  0.00    +0.241 C 
ATOM     20  O   VAL A   3     -12.684   1.377  21.707  0.00  0.00    -0.273 OA
ATOM     21  N   LEU A   4     -13.719   1.427  19.686  0.00  0.00    -0.298 N 
ATOM     22  H   LEU A   4     -13.777   1.929  18.777  0.00  0.00    +0.150 HD
BRANCH  21  23
ATOM     23  CA  LEU A   4     -14.695   0.375  19.957  0.00  0.00    +0.137 C 
BRANCH  23  24
ATOM     24  C   LEU A   4     -14.168  -0.914  19.344  0.00  0.00    +0.227 C 
ATOM     25  O   LEU A   4     -14.065  -1.022  18.135  0.00  0.00    -0.286 OA
ENDBRANCH  23  24
BRANCH  23  26
ATOM     26  CB  LEU A   4     -16.021   0.737  19.270  0.00  0.00    +0.028 C 
BRANCH  26  27
ATOM     27  CG  LEU A   4     -17.416   0.548  19.855  0.00  0.00    +0.002 C 
ATOM     28  CD2 LEU A   4     -17.499  -0.656  20.785  0.00  0.00    +0.000 C 
ATOM     29  CD1 LEU A   4     -18.429   0.414  18.700  0.00  0.00    +0.000 C 
ENDBRANCH  26  27
ENDBRANCH  23  26
ENDBRANCH  21  23
ENDBRANCH  18  19
BRANCH  18  30
ATOM     30  CB  VAL A   3     -10.406   2.257  19.634  0.00  0.00    +0.027 C 
ATOM     31  CG2 VAL A   3      -9.410   3.385  19.345  0.00  0.00    +0.002 C 
ATOM     32  CG1 VAL A   3     -10.519   1.316  18.410  0.00  0.00    +0.002 C 
ENDBRANCH  18  30
ENDBRANCH   2  18
TORSDOF 13
REMARK  Name = ../refined-set-2016/2o4z/2o4z_pocket.pdb
REMARK  137 active torsions:
REMARK  status: ('A' for Active; 'I' for Inactive)
REMARK    1  A    between atoms: _1  and  _3
REMARK    2  A    between atoms: _3  and  _4
REMARK    3  A    between atoms: _3  and  _6
REMARK    4  A    between atoms: _6  and  _7
REMARK    5  A    between atoms: _17  and  _19
REMARK    6  A    between atoms: _19  and  _20
REMARK    7  A    between atoms: _19  and  _22
REMARK    8  A    between atoms: _22  and  _23
REMARK    9  A    between atoms: _28  and  _29
REMARK   10  A    between atoms: _31  and  _33
REMARK   11  A    between atoms: _33  and  _34
REMARK   12  A    between atoms: _33  and  _36
REMARK   13  A    between atoms: _36  and  _37
REMARK   14  A    between atoms: _40  and  _41
REMARK   15  A    between atoms: _46  and  _48
REMARK   16  A    between atoms: _48  and  _49
REMARK   17  A    between atoms: _48  and  _51
REMARK   18  A    between atoms: _51  and  _52
REMARK   19  A    between atoms: _57  and  _59
REMARK   20  A    between atoms: _59  and  _60
REMARK   21  A    between atoms: _59  and  _62
REMARK   22  A    between atoms: _62  and  _63
REMARK   23  A    between atoms: _68  and  _70
REMARK   24  A    between atoms: _70  and  _71
REMARK   25  A    between atoms: _74  and  _76
REMARK   26  A    between atoms: _76  and  _77
REMARK   27  A    between atoms: _76  and  _79
REMARK   28  A    between atoms: _79  and  _80
REMARK   29  A    between atoms: _85  and  _87
REMARK   30  A    between atoms: _87  and  _88
REMARK   31  A    between atoms: _87  and  _90
REMARK   32  A    between atoms: _90  and  _91
REMARK   33  A    between atoms: _91  and  _92
REMARK   34  A    between atoms: _97  and  _99
REMARK   35  A    between atoms: _99  and  _100
REMARK   36  A    between atoms: _99  and  _102
REMARK   37  A    between atoms: _102  and  _103
REMARK   38  A    between atoms: _109  and  _111
REMARK   39  A    between atoms: _122  and  _125
REMARK   40  A    between atoms: _125  and  _126
REMARK   41  A    between atoms: _134  and  _135
REMARK   42  A    between atoms: _143  and  _145
REMARK   43  A    between atoms: _145  and  _146
REMARK   44  A    between atoms: _145  and  _148
REMARK   45  A    between atoms: _148  and  _149
REMARK   46  A    between atoms: _149  and  _150
REMARK   47  A    between atoms: _153  and  _155
REMARK   48  A    between atoms: _155  and  _156
REMARK   49  A    between atoms: _155  and  _158
REMARK   50  A    between atoms: _158  and  _159
REMARK   51  A    between atoms: _164  and  _166
REMARK   52  A    between atoms: _166  and  _167
REMARK   53  A    between atoms: _166  and  _169
REMARK   54  A    between atoms: _169  and  _170
REMARK   55  A    between atoms: _170  and  _171
REMARK   56  A    between atoms: _174  and  _176
REMARK   57  A    between atoms: _176  and  _177
REMARK   58  A    between atoms: _176  and  _179
REMARK   59  A    between atoms: _179  and  _180
REMARK   60  A    between atoms: _183  and  _185
REMARK   61  A    between atoms: _185  and  _186
REMARK   62  A    between atoms: _185  and  _188
REMARK   63  A    between atoms: _188  and  _189
REMARK   64  A    between atoms: _190  and  ZN_390
REMARK   65  A    between atoms: _194  and  _196
REMARK   66  A    between atoms: _196  and  _197
REMARK   67  A    between atoms: _196  and  _199
REMARK   68  A    between atoms: _199  and  _200
REMARK   69  A    between atoms: _203  and  _205
REMARK   70  A    between atoms: _205  and  _206
REMARK   71  A    between atoms: _205  and  _208
REMARK   72  A    between atoms: _211  and  _213
REMARK   73  A    between atoms: _213  and  _214
REMARK   74  A    between atoms: _213  and  _216
REMARK   75  A    between atoms: _216  and  _217
REMARK   76  A    between atoms: _222  and  _224
REMARK   77  A    between atoms: _224  and  _225
REMARK   78  A    between atoms: _224  and  _227
REMARK   79  A    between atoms: _227  and  _228
REMARK   80  A    between atoms: _234  and  _236
REMARK   81  A    between atoms: _236  and  _237
REMARK   82  A    between atoms: _236  and  _239
REMARK   83  A    between atoms: _239  and  _240
REMARK   84  A    between atoms: _243  and  _245
REMARK   85  A    between atoms: _245  and  _246
REMARK   86  A    between atoms: _249  and  _251
REMARK   87  A    between atoms: _251  and  _252
REMARK   88  A    between atoms: _251  and  _254
REMARK   89  A    between atoms: _257  and  _259
REMARK   90  A    between atoms: _259  and  _260
REMARK   91  A    between atoms: _259  and  _262
REMARK   92  A    between atoms: _262  and  _263
REMARK   93  A    between atoms: _266  and  _268
REMARK   94  A    between atoms: _268  and  _269
REMARK   95  A    between atoms: _271  and  _273
REMARK   96  A    between atoms: _273  and  _274
REMARK   97  A    between atoms: _273  and  _276
REMARK   98  A    between atoms: _276  and  _277
REMARK   99  A    between atoms: _279  and  _281
REMARK  100  A    between atoms: _281  and  _282
REMARK  101  A    between atoms: _281  and  _284
REMARK  102  A    between atoms: _284  and  _285
REMARK  103  A    between atoms: _288  and  _290
REMARK  104  A    between atoms: _290  and  _291
REMARK  105  A    between atoms: _290  and  _293
REMARK  106  A    between atoms: _293  and  _294
REMARK  107  A    between atoms: _297  and  _299
REMARK  108  A    between atoms: _299  and  _300
REMARK  109  A    between atoms: _299  and  _302
REMARK  110  A    between atoms: _302  and  _303
REMARK  111  A    between atoms: _307  and  _308
REMARK  112  A    between atoms: _314  and  _315
REMARK  113  A    between atoms: _320  and  _322
REMARK  114  A    between atoms: _322  and  _323
REMARK  115  A    between atoms: _322  and  _325
REMARK  116  A    between atoms: _325  and  _326
REMARK  117  A    between atoms: _329  and  _331
REMARK  118  A    between atoms: _331  and  _332
REMARK  119  A    between atoms: _331  and  _334
REMARK  120  A    between atoms: _334  and  _335
REMARK  121  A    between atoms: _338  and  _340
REMARK  122  A    between atoms: _340  and  _341
REMARK  123  A    between atoms: _340  and  _343
REMARK  124  A    between atoms: _346  and  _348
REMARK  125  A    between atoms: _348  and  _349
REMARK  126  A    between atoms: _348  and  _351
REMARK  127  A    between atoms: _351  and  _352
REMARK  128  A    between atoms: _362  and  _364
REMARK  129  A    between atoms: _364  and  _365
REMARK  130  A    between atoms: _364  and  _367
REMARK  131  A    between atoms: _367  and  _368
REMARK  132  A    between atoms: _373  and  _375
REMARK  133  A    between atoms: _375  and  _376
REMARK  134  A    between atoms: _375  and  _378
REMARK  135  A    between atoms: _378  and  _379
REMARK  136  A    between atoms: _379  and  _380
REMARK  137  A    between atoms: _380  and  _381
REMARK                            x       y       z     vdW  Elec       q    Type
REMARK                         _______ _______ _______ _____ _____    ______ ____
ROOT
ATOM      1  CA  THR A   5       0.042   0.104  16.027  0.00  0.00    +0.176 C 
ENDROOT
BRANCH   1   2
ATOM      2  C   THR A   5       0.895   1.349  16.230  0.00  0.00    +0.246 C 
ATOM      3  O   THR A   5       0.429   2.345  16.810  0.00  0.00    -0.273 OA
ATOM      4  N   PRO A   6       2.170   1.289  15.788  0.00  0.00    -0.272 N 
ATOM      5  CA  PRO A   6       2.981   2.494  15.874  0.00  0.00    +0.152 C 
ATOM      6  CB  PRO A   6       4.176   2.151  15.009  0.00  0.00    +0.031 C 
ATOM      7  CG  PRO A   6       4.355   0.643  15.259  0.00  0.00    +0.024 C 
ATOM      8  CD  PRO A   6       2.934   0.139  15.255  0.00  0.00    +0.094 C 
BRANCH   5   9
ATOM      9  C   PRO A   6       2.220   3.720  15.361  0.00  0.00    +0.244 C 
ATOM     10  N   PRO A   7       2.363   4.875  16.047  0.00  0.00    -0.272 N 
ATOM     11  CA  PRO A   7       3.310   5.182  17.120  0.00  0.00    +0.152 C 
ATOM     12  CB  PRO A   7       3.515   6.700  16.963  0.00  0.00    +0.031 C 
ATOM     13  CG  PRO A   7       2.272   7.199  16.284  0.00  0.00    +0.024 C 
ATOM     14  CD  PRO A   7       1.510   6.040  15.737  0.00  0.00    +0.094 C 
ATOM     15  O   PRO A   6       1.517   3.622  14.340  0.00  0.00    -0.273 OA
BRANCH  11  16
ATOM     16  C   PRO A   7       2.871   4.837  18.561  0.00  0.00    +0.241 C 
ATOM     17  O   PRO A   7       3.436   5.377  19.530  0.00  0.00    -0.273 OA
ATOM     18  N   LEU A   8       1.898   3.939  18.702  0.00  0.00    -0.297 N 
ATOM     19  H   LEU A   8       1.380   3.631  17.854  0.00  0.00    +0.150 HD
BRANCH  18  20
ATOM     20  CA  LEU A   8       1.523   3.363  20.002  0.00  0.00    +0.149 C 
BRANCH  20  21
ATOM     21  C   LEU A   8       1.099   4.362  21.096  0.00  0.00    +0.241 C 
ATOM     22  O   LEU A   8       1.229   4.078  22.299  0.00  0.00    -0.273 OA
ATOM     23  N   LEU A   9       0.545   5.495  20.656  0.00  0.00    -0.298 N 
ATOM     24  H   LEU A   9       0.320   5.578  19.644  0.00  0.00    +0.150 HD
BRANCH  23  25
ATOM     25  CA  LEU A   9       0.239   6.631  21.539  0.00  0.00    +0.137 C 
BRANCH  25  26
ATOM     26  C   LEU A   9      -0.757   6.274  22.637  0.00  0.00    +0.227 C 
ATOM     27  O   LEU A   9      -1.763   5.655  22.374  0.00  0.00    -0.286 OA
ENDBRANCH  25  26
BRANCH  25  28
ATOM     28  CB  LEU A   9      -0.243   7.852  20.711  0.00  0.00    +0.028 C 
BRANCH  28  29
ATOM     29  CG  LEU A   9       0.710   8.167  19.544  0.00  0.00    +0.002 C 
ATOM     30  CD2 LEU A   9       2.036   8.595  20.118  0.00  0.00    +0.000 C 
ATOM     31  CD1 LEU A   9       0.171   9.226  18.597  0.00  0.00    +0.000 C 
ENDBRANCH  28  29
ENDBRANCH  25  28
ENDBRANCH  23  25
ENDBRANCH  20  21
BRANCH  20  32
ATOM     32  CB  LEU A   8       2.621   2.421  20.506  0.00  0.00    +0.029 C 
BRANCH  32  33
ATOM     33  CG  LEU A   8       3.040   1.335  19.508  0.00  0.00    +0.002 C 
ATOM     34  CD2 LEU A   8       4.400   0.795  19.884  0.00  0.00    +0.000 C 
ATOM     35  CD1 LEU A   8       1.990   0.231  19.401  0.00  0.00    +0.000 C 
ENDBRANCH  32  33
ENDBRANCH  20  32
ENDBRANCH  18  20
ENDBRANCH  11  16
ENDBRANCH   5   9
ENDBRANCH   1   2
BRANCH   1  38
ATOM     36  C   THR A   4      -0.985  -1.077  17.884  0.00  0.00    +0.243 C 
ATOM     37  O   THR A   4      -0.316  -2.077  17.684  0.00  0.00    -0.273 OA
ATOM     38  N   THR A   5      -0.915  -0.002  17.108  0.00  0.00    -0.295 N 
ATOM     39  H   THR A   5      -1.568   0.788  17.282  0.00  0.00    +0.150 HD
BRANCH  36  40
ATOM     40  CA  THR A   4      -1.970  -1.014  19.043  0.00  0.00    +0.176 C 
BRANCH  40  43
ATOM     41  C   LEU A   3      -2.196   1.280  19.791  0.00  0.00    +0.241 C 
ATOM     42  O   LEU A   3      -1.181   1.188  20.470  0.00  0.00    -0.273 OA
ATOM     43  N   THR A   4      -2.650   0.273  19.050  0.00  0.00    -0.295 N 
ATOM     44  H   THR A   4      -3.502   0.407  18.468  0.00  0.00    +0.150 HD
BRANCH  41  45
ATOM     45  CA  LEU A   3      -3.010   2.584  19.775  0.00  0.00    +0.149 C 
BRANCH  45  48
ATOM     46  C   SER A   2      -3.467   2.551  22.173  0.00  0.00    +0.243 C 
ATOM     47  O   SER A   2      -4.298   1.654  22.069  0.00  0.00    -0.273 OA
ATOM     48  N   LEU A   3      -2.925   3.169  21.121  0.00  0.00    -0.297 N 
ATOM     49  H   LEU A   3      -2.436   4.077  21.256  0.00  0.00    +0.150 HD
BRANCH  46  50
ATOM     50  CA  SER A   2      -3.019   3.024  23.549  0.00  0.00    +0.178 C 
BRANCH  50  53
ATOM     51  C   GLY A   1      -4.273   3.020  25.665  0.00  0.00    +0.240 C 
ATOM     52  O   GLY A   1      -4.245   4.239  25.783  0.00  0.00    -0.274 OA
ATOM     53  N   SER A   2      -3.817   2.373  24.593  0.00  0.00    -0.295 N 
ATOM     54  H   SER A   2      -4.037   1.361  24.492  0.00  0.00    +0.150 HD
BRANCH  51  55
ATOM     55  CA  GLY A   1      -4.848   2.152  26.759  0.00  0.00    +0.169 C 
BRANCH  55  56
ATOM     56  N   GLY A   1      -5.912   2.790  27.508  0.00  0.00    -0.236 NA
ATOM     57  H   GLY A   1      -6.511   3.502  27.042  0.00  0.00    +0.142 HD
ENDBRANCH  55  56
ENDBRANCH  51  55
ENDBRANCH  50  53
BRANCH  50  58
ATOM     58  CB  SER A   2      -1.536   2.646  23.741  0.00  0.00    +0.166 C 
BRANCH  58  59
ATOM     59  OG  SER A   2      -1.330   1.258  23.460  0.00  0.00    -0.380 OA
ATOM     60  H   SER A   2      -1.591   1.070  22.524  0.00  0.00    +0.211 HD
ENDBRANCH  58  59
ENDBRANCH  50  58
ENDBRANCH  46  50
ENDBRANCH  45  48
BRANCH  45  61
ATOM     61  CB  LEU A   3      -2.484   3.561  18.706  0.00  0.00    +0.029 C 
BRANCH  61  62
ATOM     62  CG  LEU A   3      -3.138   4.971  18.644  0.00  0.00    +0.002 C 
ATOM     63  CD2 LEU A   3      -4.541   4.900  18.050  0.00  0.00    +0.000 C 
ATOM     64  CD1 LEU A   3      -2.325   5.954  17.864  0.00  0.00    +0.000 C 
ENDBRANCH  61  62
ENDBRANCH  45  61
ENDBRANCH  41  45
ENDBRANCH  40  43
BRANCH  40  65
ATOM     65  CB  THR A   4      -2.966  -2.168  18.934  0.00  0.00    +0.137 C 
ATOM     66  CG2 THR A   4      -4.031  -2.132  20.081  0.00  0.00    +0.034 C 
BRANCH  65  67
ATOM     67  OG1 THR A   4      -3.625  -2.071  17.668  0.00  0.00    -0.382 OA
ATOM     68  HG1 THR A   4      -4.276  -2.812  17.578  0.00  0.00    +0.210 HD
ENDBRANCH  65  67
ENDBRANCH  40  65
ENDBRANCH  36  40
ENDBRANCH   1  38
BRANCH   1  69
ATOM     69  CB  THR A   5      -0.646   0.183  14.647  0.00  0.00    +0.137 C 
ATOM     70  CG2 THR A   5      -1.559  -0.990  14.416  0.00  0.00    +0.034 C 
BRANCH  69  71
ATOM     71  OG1 THR A   5      -1.406   1.382  14.576  0.00  0.00    -0.382 OA
ATOM     72  HG1 THR A   5      -0.805   2.160  14.695  0.00  0.00    +0.210 HD
ENDBRANCH  69  71
ENDBRANCH   1  69
TORSDOF 28
REMARK  Name = ../refined-set-2016/2o4z/2o4z_pocket.pdb
REMARK  137 active torsions:
REMARK  status: ('A' for Active; 'I' for Inactive)
REMARK    1  A    between atoms: _1  and  _3
REMARK    2  A    between atoms: _3  and  _4
REMARK    3  A    between atoms: _3  and  _6
REMARK    4  A    between atoms: _6  and  _7
REMARK    5  A    between atoms: _17  and  _19
REMARK    6  A    between atoms: _19  and  _20
REMARK    7  A    between atoms: _19  and  _22
REMARK    8  A    between atoms: _22  and  _23
REMARK    9  A    between atoms: _28  and  _29
REMARK   10  A    between atoms: _31  and  _33
REMARK   11  A    between atoms: _33  and  _34
REMARK   12  A    between atoms: _33  and  _36
REMARK   13  A    between atoms: _36  and  _37
REMARK   14  A    between atoms: _40  and  _41
REMARK   15  A    between atoms: _46  and  _48
REMARK   16  A    between atoms: _48  and  _49
REMARK   17  A    between atoms: _48  and  _51
REMARK   18  A    between atoms: _51  and  _52
REMARK   19  A    between atoms: _57  and  _59
REMARK   20  A    between atoms: _59  and  _60
REMARK   21  A    between atoms: _59  and  _62
REMARK   22  A    between atoms: _62  and  _63
REMARK   23  A    between atoms: _68  and  _70
REMARK   24  A    between atoms: _70  and  _71
REMARK   25  A    between atoms: _74  and  _76
REMARK   26  A    between atoms: _76  and  _77
REMARK   27  A    between atoms: _76  and  _79
REMARK   28  A    between atoms: _79  and  _80
REMARK   29  A    between atoms: _85  and  _87
REMARK   30  A    between atoms: _87  and  _88
REMARK   31  A    between atoms: _87  and  _90
REMARK   32  A    between atoms: _90  and  _91
REMARK   33  A    between atoms: _91  and  _92
REMARK   34  A    between atoms: _97  and  _99
REMARK   35  A    between atoms: _99  and  _100
REMARK   36  A    between atoms: _99  and  _102
REMARK   37  A    between atoms: _102  and  _103
REMARK   38  A    between atoms: _109  and  _111
REMARK   39  A    between atoms: _122  and  _125
REMARK   40  A    between atoms: _125  and  _126
REMARK   41  A    between atoms: _134  and  _135
REMARK   42  A    between atoms: _143  and  _145
REMARK   43  A    between atoms: _145  and  _146
REMARK   44  A    between atoms: _145  and  _148
REMARK   45  A    between atoms: _148  and  _149
REMARK   46  A    between atoms: _149  and  _150
REMARK   47  A    between atoms: _153  and  _155
REMARK   48  A    between atoms: _155  and  _156
REMARK   49  A    between atoms: _155  and  _158
REMARK   50  A    between atoms: _158  and  _159
REMARK   51  A    between atoms: _164  and  _166
REMARK   52  A    between atoms: _166  and  _167
REMARK   53  A    between atoms: _166  and  _169
REMARK   54  A    between atoms: _169  and  _170
REMARK   55  A    between atoms: _170  and  _171
REMARK   56  A    between atoms: _174  and  _176
REMARK   57  A    between atoms: _176  and  _177
REMARK   58  A    between atoms: _176  and  _179
REMARK   59  A    between atoms: _179  and  _180
REMARK   60  A    between atoms: _183  and  _185
REMARK   61  A    between atoms: _185  and  _186
REMARK   62  A    between atoms: _185  and  _188
REMARK   63  A    between atoms: _188  and  _189
REMARK   64  A    between atoms: _190  and  ZN_390
REMARK   65  A    between atoms: _194  and  _196
REMARK   66  A    between atoms: _196  and  _197
REMARK   67  A    between atoms: _196  and  _199
REMARK   68  A    between atoms: _199  and  _200
REMARK   69  A    between atoms: _203  and  _205
REMARK   70  A    between atoms: _205  and  _206
REMARK   71  A    between atoms: _205  and  _208
REMARK   72  A    between atoms: _211  and  _213
REMARK   73  A    between atoms: _213  and  _214
REMARK   74  A    between atoms: _213  and  _216
REMARK   75  A    between atoms: _216  and  _217
REMARK   76  A    between atoms: _222  and  _224
REMARK   77  A    between atoms: _224  and  _225
REMARK   78  A    between atoms: _224  and  _227
REMARK   79  A    between atoms: _227  and  _228
REMARK   80  A    between atoms: _234  and  _236
REMARK   81  A    between atoms: _236  and  _237
REMARK   82  A    between atoms: _236  and  _239
REMARK   83  A    between atoms: _239  and  _240
REMARK   84  A    between atoms: _243  and  _245
REMARK   85  A    between atoms: _245  and  _246
REMARK   86  A    between atoms: _249  and  _251
REMARK   87  A    between atoms: _251  and  _252
REMARK   88  A    between atoms: _251  and  _254
REMARK   89  A    between atoms: _257  and  _259
REMARK   90  A    between atoms: _259  and  _260
REMARK   91  A    between atoms: _259  and  _262
REMARK   92  A    between atoms: _262  and  _263
REMARK   93  A    between atoms: _266  and  _268
REMARK   94  A    between atoms: _268  and  _269
REMARK   95  A    between atoms: _271  and  _273
REMARK   96  A    between atoms: _273  and  _274
REMARK   97  A    between atoms: _273  and  _276
REMARK   98  A    between atoms: _276  and  _277
REMARK   99  A    between atoms: _279  and  _281
REMARK  100  A    between atoms: _281  and  _282
REMARK  101  A    between atoms: _281  and  _284
REMARK  102  A    between atoms: _284  and  _285
REMARK  103  A    between atoms: _288  and  _290
REMARK  104  A    between atoms: _290  and  _291
REMARK  105  A    between atoms: _290  and  _293
REMARK  106  A    between atoms: _293  and  _294
REMARK  107  A    between atoms: _297  and  _299
REMARK  108  A    between atoms: _299  and  _300
REMARK  109  A    between atoms: _299  and  _302
REMARK  110  A    between atoms: _302  and  _303
REMARK  111  A    between atoms: _307  and  _308
REMARK  112  A    between atoms: _314  and  _315
REMARK  113  A    between atoms: _320  and  _322
REMARK  114  A    between atoms: _322  and  _323
REMARK  115  A    between atoms: _322  and  _325
REMARK  116  A    between atoms: _325  and  _326
REMARK  117  A    between atoms: _329  and  _331
REMARK  118  A    between atoms: _331  and  _332
REMARK  119  A    between atoms: _331  and  _334
REMARK  120  A    between atoms: _334  and  _335
REMARK  121  A    between atoms: _338  and  _340
REMARK  122  A    between atoms: _340  and  _341
REMARK  123  A    between atoms: _340  and  _343
REMARK  124  A    between atoms: _346  and  _348
REMARK  125  A    between atoms: _348  and  _349
REMARK  126  A    between atoms: _348  and  _351
REMARK  127  A    between atoms: _351  and  _352
REMARK  128  A    between atoms: _362  and  _364
REMARK  129  A    between atoms: _364  and  _365
REMARK  130  A    between atoms: _364  and  _367
REMARK  131  A    between atoms: _367  and  _368
REMARK  132  A    between atoms: _373  and  _375
REMARK  133  A    between atoms: _375  and  _376
REMARK  134  A    between atoms: _375  and  _378
REMARK  135  A    between atoms: _378  and  _379
REMARK  136  A    between atoms: _379  and  _380
REMARK  137  A    between atoms: _380  and  _381
REMARK                            x       y       z     vdW  Elec       q    Type
REMARK                         _______ _______ _______ _____ _____    ______ ____
ROOT
ATOM      1  CA  VAL A   1      -7.174   5.579  24.011  0.00  0.00    +0.133 C 
ENDROOT
BRANCH   1   2
ATOM      2  CB  VAL A   1      -6.921   4.365  23.099  0.00  0.00    +0.023 C 
ATOM      3  CG2 VAL A   1      -8.247   3.583  22.863  0.00  0.00    +0.002 C 
ATOM      4  CG1 VAL A   1      -6.270   4.816  21.788  0.00  0.00    +0.002 C 
ENDBRANCH   1   2
BRANCH   1   5
ATOM      5  N   VAL A   1      -5.926   6.285  24.303  0.00  0.00    -0.239 NA
ATOM      6  H   VAL A   1      -5.097   5.743  24.620  0.00  0.00    +0.142 HD
ENDBRANCH   1   5
BRANCH   1   7
ATOM      7  C   VAL A   1      -7.969   5.092  25.213  0.00  0.00    +0.224 C 
ATOM      8  O   VAL A   1      -7.450   4.406  26.095  0.00  0.00    -0.287 OA
ENDBRANCH   1   7
TORSDOF 3
REMARK  Name = ../refined-set-2016/2o4z/2o4z_pocket.pdb
REMARK  137 active torsions:
REMARK  status: ('A' for Active; 'I' for Inactive)
REMARK    1  A    between atoms: _1  and  _3
REMARK    2  A    between atoms: _3  and  _4
REMARK    3  A    between atoms: _3  and  _6
REMARK    4  A    between atoms: _6  and  _7
REMARK    5  A    between atoms: _17  and  _19
REMARK    6  A    between atoms: _19  and  _20
REMARK    7  A    between atoms: _19  and  _22
REMARK    8  A    between atoms: _22  and  _23
REMARK    9  A    between atoms: _28  and  _29
REMARK   10  A    between atoms: _31  and  _33
REMARK   11  A    between atoms: _33  and  _34
REMARK   12  A    between atoms: _33  and  _36
REMARK   13  A    between atoms: _36  and  _37
REMARK   14  A    between atoms: _40  and  _41
REMARK   15  A    between atoms: _46  and  _48
REMARK   16  A    between atoms: _48  and  _49
REMARK   17  A    between atoms: _48  and  _51
REMARK   18  A    between atoms: _51  and  _52
REMARK   19  A    between atoms: _57  and  _59
REMARK   20  A    between atoms: _59  and  _60
REMARK   21  A    between atoms: _59  and  _62
REMARK   22  A    between atoms: _62  and  _63
REMARK   23  A    between atoms: _68  and  _70
REMARK   24  A    between atoms: _70  and  _71
REMARK   25  A    between atoms: _74  and  _76
REMARK   26  A    between atoms: _76  and  _77
REMARK   27  A    between atoms: _76  and  _79
REMARK   28  A    between atoms: _79  and  _80
REMARK   29  A    between atoms: _85  and  _87
REMARK   30  A    between atoms: _87  and  _88
REMARK   31  A    between atoms: _87  and  _90
REMARK   32  A    between atoms: _90  and  _91
REMARK   33  A    between atoms: _91  and  _92
REMARK   34  A    between atoms: _97  and  _99
REMARK   35  A    between atoms: _99  and  _100
REMARK   36  A    between atoms: _99  and  _102
REMARK   37  A    between atoms: _102  and  _103
REMARK   38  A    between atoms: _109  and  _111
REMARK   39  A    between atoms: _122  and  _125
REMARK   40  A    between atoms: _125  and  _126
REMARK   41  A    between atoms: _134  and  _135
REMARK   42  A    between atoms: _143  and  _145
REMARK   43  A    between atoms: _145  and  _146
REMARK   44  A    between atoms: _145  and  _148
REMARK   45  A    between atoms: _148  and  _149
REMARK   46  A    between atoms: _149  and  _150
REMARK   47  A    between atoms: _153  and  _155
REMARK   48  A    between atoms: _155  and  _156
REMARK   49  A    between atoms: _155  and  _158
REMARK   50  A    between atoms: _158  and  _159
REMARK   51  A    between atoms: _164  and  _166
REMARK   52  A    between atoms: _166  and  _167
REMARK   53  A    between atoms: _166  and  _169
REMARK   54  A    between atoms: _169  and  _170
REMARK   55  A    between atoms: _170  and  _171
REMARK   56  A    between atoms: _174  and  _176
REMARK   57  A    between atoms: _176  and  _177
REMARK   58  A    between atoms: _176  and  _179
REMARK   59  A    between atoms: _179  and  _180
REMARK   60  A    between atoms: _183  and  _185
REMARK   61  A    between atoms: _185  and  _186
REMARK   62  A    between atoms: _185  and  _188
REMARK   63  A    between atoms: _188  and  _189
REMARK   64  A    between atoms: _190  and  ZN_390
REMARK   65  A    between atoms: _194  and  _196
REMARK   66  A    between atoms: _196  and  _197
REMARK   67  A    between atoms: _196  and  _199
REMARK   68  A    between atoms: _199  and  _200
REMARK   69  A    between atoms: _203  and  _205
REMARK   70  A    between atoms: _205  and  _206
REMARK   71  A    between atoms: _205  and  _208
REMARK   72  A    between atoms: _211  and  _213
REMARK   73  A    between atoms: _213  and  _214
REMARK   74  A    between atoms: _213  and  _216
REMARK   75  A    between atoms: _216  and  _217
REMARK   76  A    between atoms: _222  and  _224
REMARK   77  A    between atoms: _224  and  _225
REMARK   78  A    between atoms: _224  and  _227
REMARK   79  A    between atoms: _227  and  _228
REMARK   80  A    between atoms: _234  and  _236
REMARK   81  A    between atoms: _236  and  _237
REMARK   82  A    between atoms: _236  and  _239
REMARK   83  A    between atoms: _239  and  _240
REMARK   84  A    between atoms: _243  and  _245
REMARK   85  A    between atoms: _245  and  _246
REMARK   86  A    between atoms: _249  and  _251
REMARK   87  A    between atoms: _251  and  _252
REMARK   88  A    between atoms: _251  and  _254
REMARK   89  A    between atoms: _257  and  _259
REMARK   90  A    between atoms: _259  and  _260
REMARK   91  A    between atoms: _259  and  _262
REMARK   92  A    between atoms: _262  and  _263
REMARK   93  A    between atoms: _266  and  _268
REMARK   94  A    between atoms: _268  and  _269
REMARK   95  A    between atoms: _271  and  _273
REMARK   96  A    between atoms: _273  and  _274
REMARK   97  A    between atoms: _273  and  _276
REMARK   98  A    between atoms: _276  and  _277
REMARK   99  A    between atoms: _279  and  _281
REMARK  100  A    between atoms: _281  and  _282
REMARK  101  A    between atoms: _281  and  _284
REMARK  102  A    between atoms: _284  and  _285
REMARK  103  A    between atoms: _288  and  _290
REMARK  104  A    between atoms: _290  and  _291
REMARK  105  A    between atoms: _290  and  _293
REMARK  106  A    between atoms: _293  and  _294
REMARK  107  A    between atoms: _297  and  _299
REMARK  108  A    between atoms: _299  and  _300
REMARK  109  A    between atoms: _299  and  _302
REMARK  110  A    between atoms: _302  and  _303
REMARK  111  A    between atoms: _307  and  _308
REMARK  112  A    between atoms: _314  and  _315
REMARK  113  A    between atoms: _320  and  _322
REMARK  114  A    between atoms: _322  and  _323
REMARK  115  A    between atoms: _322  and  _325
REMARK  116  A    between atoms: _325  and  _326
REMARK  117  A    between atoms: _329  and  _331
REMARK  118  A    between atoms: _331  and  _332
REMARK  119  A    between atoms: _331  and  _334
REMARK  120  A    between atoms: _334  and  _335
REMARK  121  A    between atoms: _338  and  _340
REMARK  122  A    between atoms: _340  and  _341
REMARK  123  A    between atoms: _340  and  _343
REMARK  124  A    between atoms: _346  and  _348
REMARK  125  A    between atoms: _348  and  _349
REMARK  126  A    between atoms: _348  and  _351
REMARK  127  A    between atoms: _351  and  _352
REMARK  128  A    between atoms: _362  and  _364
REMARK  129  A    between atoms: _364  and  _365
REMARK  130  A    between atoms: _364  and  _367
REMARK  131  A    between atoms: _367  and  _368
REMARK  132  A    between atoms: _373  and  _375
REMARK  133  A    between atoms: _375  and  _376
REMARK  134  A    between atoms: _375  and  _378
REMARK  135  A    between atoms: _378  and  _379
REMARK  136  A    between atoms: _379  and  _380
REMARK  137  A    between atoms: _380  and  _381
REMARK                            x       y       z     vdW  Elec       q    Type
REMARK                         _______ _______ _______ _____ _____    ______ ____
ROOT
ATOM      1  CG  TRP A   1      -8.759   0.130  24.134  0.00  0.00    -0.002 A 
ATOM      2  CD1 TRP A   1      -7.523   0.665  24.320  0.00  0.00    +0.068 A 
ATOM      3  NE1 TRP A   1      -6.807   0.618  23.139  0.00  0.00    -0.352 N 
ATOM      4  HE1 TRP A   1      -5.846   0.991  23.002  0.00  0.00    +0.166 HD
ATOM      5  CE2 TRP A   1      -7.565   0.001  22.175  0.00  0.00    +0.056 A 
ATOM      6  CZ2 TRP A   1      -7.265  -0.286  20.825  0.00  0.00    +0.017 A 
ATOM      7  CH2 TRP A   1      -8.250  -0.905  20.086  0.00  0.00    +0.001 A 
ATOM      8  CZ3 TRP A   1      -9.521  -1.236  20.659  0.00  0.00    +0.000 A 
ATOM      9  CE3 TRP A   1      -9.811  -0.930  21.976  0.00  0.00    +0.001 A 
ATOM     10  CD2 TRP A   1      -8.814  -0.317  22.762  0.00  0.00    +0.013 A 
ENDROOT
BRANCH   1  11
ATOM     11  CB  TRP A   1      -9.833   0.026  25.119  0.00  0.00    +0.053 C 
BRANCH  11  12
ATOM     12  CA  TRP A   1     -10.879   1.140  24.957  0.00  0.00    +0.137 C 
BRANCH  12  13
ATOM     13  N   TRP A   1     -10.488   2.322  25.674  0.00  0.00    -0.239 NA
ATOM     14  H   TRP A   1      -9.990   2.223  26.582  0.00  0.00    +0.142 HD
ENDBRANCH  12  13
BRANCH  12  15
ATOM     15  C   TRP A   1     -12.231   0.688  25.452  0.00  0.00    +0.224 C 
ATOM     16  O   TRP A   1     -12.528   0.744  26.648  0.00  0.00    -0.287 OA
ENDBRANCH  12  15
ENDBRANCH  11  12
ENDBRANCH   1  11
TORSDOF 4
REMARK  Name = ../refined-set-2016/2o4z/2o4z_pocket.pdb
REMARK  137 active torsions:
REMARK  status: ('A' for Active; 'I' for Inactive)
REMARK    1  A    between atoms: _1  and  _3
REMARK    2  A    between atoms: _3  and  _4
REMARK    3  A    between atoms: _3  and  _6
REMARK    4  A    between atoms: _6  and  _7
REMARK    5  A    between atoms: _17  and  _19
REMARK    6  A    between atoms: _19  and  _20
REMARK    7  A    between atoms: _19  and  _22
REMARK    8  A    between atoms: _22  and  _23
REMARK    9  A    between atoms: _28  and  _29
REMARK   10  A    between atoms: _31  and  _33
REMARK   11  A    between atoms: _33  and  _34
REMARK   12  A    between atoms: _33  and  _36
REMARK   13  A    between atoms: _36  and  _37
REMARK   14  A    between atoms: _40  and  _41
REMARK   15  A    between atoms: _46  and  _48
REMARK   16  A    between atoms: _48  and  _49
REMARK   17  A    between atoms: _48  and  _51
REMARK   18  A    between atoms: _51  and  _52
REMARK   19  A    between atoms: _57  and  _59
REMARK   20  A    between atoms: _59  and  _60
REMARK   21  A    between atoms: _59  and  _62
REMARK   22  A    between atoms: _62  and  _63
REMARK   23  A    between atoms: _68  and  _70
REMARK   24  A    between atoms: _70  and  _71
REMARK   25  A    between atoms: _74  and  _76
REMARK   26  A    between atoms: _76  and  _77
REMARK   27  A    between atoms: _76  and  _79
REMARK   28  A    between atoms: _79  and  _80
REMARK   29  A    between atoms: _85  and  _87
REMARK   30  A    between atoms: _87  and  _88
REMARK   31  A    between atoms: _87  and  _90
REMARK   32  A    between atoms: _90  and  _91
REMARK   33  A    between atoms: _91  and  _92
REMARK   34  A    between atoms: _97  and  _99
REMARK   35  A    between atoms: _99  and  _100
REMARK   36  A    between atoms: _99  and  _102
REMARK   37  A    between atoms: _102  and  _103
REMARK   38  A    between atoms: _109  and  _111
REMARK   39  A    between atoms: _122  and  _125
REMARK   40  A    between atoms: _125  and  _126
REMARK   41  A    between atoms: _134  and  _135
REMARK   42  A    between atoms: _143  and  _145
REMARK   43  A    between atoms: _145  and  _146
REMARK   44  A    between atoms: _145  and  _148
REMARK   45  A    between atoms: _148  and  _149
REMARK   46  A    between atoms: _149  and  _150
REMARK   47  A    between atoms: _153  and  _155
REMARK   48  A    between atoms: _155  and  _156
REMARK   49  A    between atoms: _155  and  _158
REMARK   50  A    between atoms: _158  and  _159
REMARK   51  A    between atoms: _164  and  _166
REMARK   52  A    between atoms: _166  and  _167
REMARK   53  A    between atoms: _166  and  _169
REMARK   54  A    between atoms: _169  and  _170
REMARK   55  A    between atoms: _170  and  _171
REMARK   56  A    between atoms: _174  and  _176
REMARK   57  A    between atoms: _176  and  _177
REMARK   58  A    between atoms: _176  and  _179
REMARK   59  A    between atoms: _179  and  _180
REMARK   60  A    between atoms: _183  and  _185
REMARK   61  A    between atoms: _185  and  _186
REMARK   62  A    between atoms: _185  and  _188
REMARK   63  A    between atoms: _188  and  _189
REMARK   64  A    between atoms: _190  and  ZN_390
REMARK   65  A    between atoms: _194  and  _196
REMARK   66  A    between atoms: _196  and  _197
REMARK   67  A    between atoms: _196  and  _199
REMARK   68  A    between atoms: _199  and  _200
REMARK   69  A    between atoms: _203  and  _205
REMARK   70  A    between atoms: _205  and  _206
REMARK   71  A    between atoms: _205  and  _208
REMARK   72  A    between atoms: _211  and  _213
REMARK   73  A    between atoms: _213  and  _214
REMARK   74  A    between atoms: _213  and  _216
REMARK   75  A    between atoms: _216  and  _217
REMARK   76  A    between atoms: _222  and  _224
REMARK   77  A    between atoms: _224  and  _225
REMARK   78  A    between atoms: _224  and  _227
REMARK   79  A    between atoms: _227  and  _228
REMARK   80  A    between atoms: _234  and  _236
REMARK   81  A    between atoms: _236  and  _237
REMARK   82  A    between atoms: _236  and  _239
REMARK   83  A    between atoms: _239  and  _240
REMARK   84  A    between atoms: _243  and  _245
REMARK   85  A    between atoms: _245  and  _246
REMARK   86  A    between atoms: _249  and  _251
REMARK   87  A    between atoms: _251  and  _252
REMARK   88  A    between atoms: _251  and  _254
REMARK   89  A    between atoms: _257  and  _259
REMARK   90  A    between atoms: _259  and  _260
REMARK   91  A    between atoms: _259  and  _262
REMARK   92  A    between atoms: _262  and  _263
REMARK   93  A    between atoms: _266  and  _268
REMARK   94  A    between atoms: _268  and  _269
REMARK   95  A    between atoms: _271  and  _273
REMARK   96  A    between atoms: _273  and  _274
REMARK   97  A    between atoms: _273  and  _276
REMARK   98  A    between atoms: _276  and  _277
REMARK   99  A    between atoms: _279  and  _281
REMARK  100  A    between atoms: _281  and  _282
REMARK  101  A    between atoms: _281  and  _284
REMARK  102  A    between atoms: _284  and  _285
REMARK  103  A    between atoms: _288  and  _290
REMARK  104  A    between atoms: _290  and  _291
REMARK  105  A    between atoms: _290  and  _293
REMARK  106  A    between atoms: _293  and  _294
REMARK  107  A    between atoms: _297  and  _299
REMARK  108  A    between atoms: _299  and  _300
REMARK  109  A    between atoms: _299  and  _302
REMARK  110  A    between atoms: _302  and  _303
REMARK  111  A    between atoms: _307  and  _308
REMARK  112  A    between atoms: _314  and  _315
REMARK  113  A    between atoms: _320  and  _322
REMARK  114  A    between atoms: _322  and  _323
REMARK  115  A    between atoms: _322  and  _325
REMARK  116  A    between atoms: _325  and  _326
REMARK  117  A    between atoms: _329  and  _331
REMARK  118  A    between atoms: _331  and  _332
REMARK  119  A    between atoms: _331  and  _334
REMARK  120  A    between atoms: _334  and  _335
REMARK  121  A    between atoms: _338  and  _340
REMARK  122  A    between atoms: _340  and  _341
REMARK  123  A    between atoms: _340  and  _343
REMARK  124  A    between atoms: _346  and  _348
REMARK  125  A    between atoms: _348  and  _349
REMARK  126  A    between atoms: _348  and  _351
REMARK  127  A    between atoms: _351  and  _352
REMARK  128  A    between atoms: _362  and  _364
REMARK  129  A    between atoms: _364  and  _365
REMARK  130  A    between atoms: _364  and  _367
REMARK  131  A    between atoms: _367  and  _368
REMARK  132  A    between atoms: _373  and  _375
REMARK  133  A    between atoms: _375  and  _376
REMARK  134  A    between atoms: _375  and  _378
REMARK  135  A    between atoms: _378  and  _379
REMARK  136  A    between atoms: _379  and  _380
REMARK  137  A    between atoms: _380  and  _381
REMARK                            x       y       z     vdW  Elec       q    Type
REMARK                         _______ _______ _______ _____ _____    ______ ____
ROOT
ATOM      1  CB  ASN A   1      -2.010  -7.193  10.402  0.00  0.00    +0.110 C 
ENDROOT
BRANCH   1   2
ATOM      2  CG  ASN A   1      -3.485  -7.402  10.039  0.00  0.00    +0.221 C 
ATOM      3  OD1 ASN A   1      -4.187  -8.209  10.656  0.00  0.00    -0.275 OA
ATOM      4  ND2 ASN A   1      -3.955  -6.665   9.037  0.00  0.00    -0.329 N 
ATOM      5 HD21 ASN A   1      -4.949  -6.757   8.746  0.00  0.00    +0.145 HD
ATOM      6 HD22 ASN A   1      -3.328  -5.997   8.544  0.00  0.00    +0.145 HD
ENDBRANCH   1   2
BRANCH   1   7
ATOM      7  CA  ASN A   1      -1.540  -8.109  11.560  0.00  0.00    +0.142 C 
BRANCH   7   8
ATOM      8  N   ASN A   1      -1.843  -9.520  11.298  0.00  0.00    -0.239 NA
ATOM      9  H   ASN A   1      -2.736  -9.781  10.833  0.00  0.00    +0.142 HD
ENDBRANCH   7   8
BRANCH   7  10
ATOM     10  C   ASN A   1      -2.047  -7.639  12.941  0.00  0.00    +0.225 C 
ATOM     11  O   ASN A   1      -2.738  -6.636  13.062  0.00  0.00    -0.287 OA
ENDBRANCH   7  10
ENDBRANCH   1   7
TORSDOF 4
REMARK  Name = ../refined-set-2016/2o4z/2o4z_pocket.pdb
REMARK  137 active torsions:
REMARK  status: ('A' for Active; 'I' for Inactive)
REMARK    1  A    between atoms: _1  and  _3
REMARK    2  A    between atoms: _3  and  _4
REMARK    3  A    between atoms: _3  and  _6
REMARK    4  A    between atoms: _6  and  _7
REMARK    5  A    between atoms: _17  and  _19
REMARK    6  A    between atoms: _19  and  _20
REMARK    7  A    between atoms: _19  and  _22
REMARK    8  A    between atoms: _22  and  _23
REMARK    9  A    between atoms: _28  and  _29
REMARK   10  A    between atoms: _31  and  _33
REMARK   11  A    between atoms: _33  and  _34
REMARK   12  A    between atoms: _33  and  _36
REMARK   13  A    between atoms: _36  and  _37
REMARK   14  A    between atoms: _40  and  _41
REMARK   15  A    between atoms: _46  and  _48
REMARK   16  A    between atoms: _48  and  _49
REMARK   17  A    between atoms: _48  and  _51
REMARK   18  A    between atoms: _51  and  _52
REMARK   19  A    between atoms: _57  and  _59
REMARK   20  A    between atoms: _59  and  _60
REMARK   21  A    between atoms: _59  and  _62
REMARK   22  A    between atoms: _62  and  _63
REMARK   23  A    between atoms: _68  and  _70
REMARK   24  A    between atoms: _70  and  _71
REMARK   25  A    between atoms: _74  and  _76
REMARK   26  A    between atoms: _76  and  _77
REMARK   27  A    between atoms: _76  and  _79
REMARK   28  A    between atoms: _79  and  _80
REMARK   29  A    between atoms: _85  and  _87
REMARK   30  A    between atoms: _87  and  _88
REMARK   31  A    between atoms: _87  and  _90
REMARK   32  A    between atoms: _90  and  _91
REMARK   33  A    between atoms: _91  and  _92
REMARK   34  A    between atoms: _97  and  _99
REMARK   35  A    between atoms: _99  and  _100
REMARK   36  A    between atoms: _99  and  _102
REMARK   37  A    between atoms: _102  and  _103
REMARK   38  A    between atoms: _109  and  _111
REMARK   39  A    between atoms: _122  and  _125
REMARK   40  A    between atoms: _125  and  _126
REMARK   41  A    between atoms: _134  and  _135
REMARK   42  A    between atoms: _143  and  _145
REMARK   43  A    between atoms: _145  and  _146
REMARK   44  A    between atoms: _145  and  _148
REMARK   45  A    between atoms: _148  and  _149
REMARK   46  A    between atoms: _149  and  _150
REMARK   47  A    between atoms: _153  and  _155
REMARK   48  A    between atoms: _155  and  _156
REMARK   49  A    between atoms: _155  and  _158
REMARK   50  A    between atoms: _158  and  _159
REMARK   51  A    between atoms: _164  and  _166
REMARK   52  A    between atoms: _166  and  _167
REMARK   53  A    between atoms: _166  and  _169
REMARK   54  A    between atoms: _169  and  _170
REMARK   55  A    between atoms: _170  and  _171
REMARK   56  A    between atoms: _174  and  _176
REMARK   57  A    between atoms: _176  and  _177
REMARK   58  A    between atoms: _176  and  _179
REMARK   59  A    between atoms: _179  and  _180
REMARK   60  A    between atoms: _183  and  _185
REMARK   61  A    between atoms: _185  and  _186
REMARK   62  A    between atoms: _185  and  _188
REMARK   63  A    between atoms: _188  and  _189
REMARK   64  A    between atoms: _190  and  ZN_390
REMARK   65  A    between atoms: _194  and  _196
REMARK   66  A    between atoms: _196  and  _197
REMARK   67  A    between atoms: _196  and  _199
REMARK   68  A    between atoms: _199  and  _200
REMARK   69  A    between atoms: _203  and  _205
REMARK   70  A    between atoms: _205  and  _206
REMARK   71  A    between atoms: _205  and  _208
REMARK   72  A    between atoms: _211  and  _213
REMARK   73  A    between atoms: _213  and  _214
REMARK   74  A    between atoms: _213  and  _216
REMARK   75  A    between atoms: _216  and  _217
REMARK   76  A    between atoms: _222  and  _224
REMARK   77  A    between atoms: _224  and  _225
REMARK   78  A    between atoms: _224  and  _227
REMARK   79  A    between atoms: _227  and  _228
REMARK   80  A    between atoms: _234  and  _236
REMARK   81  A    between atoms: _236  and  _237
REMARK   82  A    between atoms: _236  and  _239
REMARK   83  A    between atoms: _239  and  _240
REMARK   84  A    between atoms: _243  and  _245
REMARK   85  A    between atoms: _245  and  _246
REMARK   86  A    between atoms: _249  and  _251
REMARK   87  A    between atoms: _251  and  _252
REMARK   88  A    between atoms: _251  and  _254
REMARK   89  A    between atoms: _257  and  _259
REMARK   90  A    between atoms: _259  and  _260
REMARK   91  A    between atoms: _259  and  _262
REMARK   92  A    between atoms: _262  and  _263
REMARK   93  A    between atoms: _266  and  _268
REMARK   94  A    between atoms: _268  and  _269
REMARK   95  A    between atoms: _271  and  _273
REMARK   96  A    between atoms: _273  and  _274
REMARK   97  A    between atoms: _273  and  _276
REMARK   98  A    between atoms: _276  and  _277
REMARK   99  A    between atoms: _279  and  _281
REMARK  100  A    between atoms: _281  and  _282
REMARK  101  A    between atoms: _281  and  _284
REMARK  102  A    between atoms: _284  and  _285
REMARK  103  A    between atoms: _288  and  _290
REMARK  104  A    between atoms: _290  and  _291
REMARK  105  A    between atoms: _290  and  _293
REMARK  106  A    between atoms: _293  and  _294
REMARK  107  A    between atoms: _297  and  _299
REMARK  108  A    between atoms: _299  and  _300
REMARK  109  A    between atoms: _299  and  _302
REMARK  110  A    between atoms: _302  and  _303
REMARK  111  A    between atoms: _307  and  _308
REMARK  112  A    between atoms: _314  and  _315
REMARK  113  A    between atoms: _320  and  _322
REMARK  114  A    between atoms: _322  and  _323
REMARK  115  A    between atoms: _322  and  _325
REMARK  116  A    between atoms: _325  and  _326
REMARK  117  A    between atoms: _329  and  _331
REMARK  118  A    between atoms: _331  and  _332
REMARK  119  A    between atoms: _331  and  _334
REMARK  120  A    between atoms: _334  and  _335
REMARK  121  A    between atoms: _338  and  _340
REMARK  122  A    between atoms: _340  and  _341
REMARK  123  A    between atoms: _340  and  _343
REMARK  124  A    between atoms: _346  and  _348
REMARK  125  A    between atoms: _348  and  _349
REMARK  126  A    between atoms: _348  and  _351
REMARK  127  A    between atoms: _351  and  _352
REMARK  128  A    between atoms: _362  and  _364
REMARK  129  A    between atoms: _364  and  _365
REMARK  130  A    between atoms: _364  and  _367
REMARK  131  A    between atoms: _367  and  _368
REMARK  132  A    between atoms: _373  and  _375
REMARK  133  A    between atoms: _375  and  _376
REMARK  134  A    between atoms: _375  and  _378
REMARK  135  A    between atoms: _378  and  _379
REMARK  136  A    between atoms: _379  and  _380
REMARK  137  A    between atoms: _380  and  _381
REMARK                            x       y       z     vdW  Elec       q    Type
REMARK                         _______ _______ _______ _____ _____    ______ ____
ROOT
ATOM      1  NE  ARG A   1       2.265  -3.644  21.123  0.00  0.00    -0.265 N 
ATOM      2  CZ  ARG A   1       2.446  -2.577  21.913  0.00  0.00    +0.342 C 
ATOM      3  NH2 ARG A   1       3.647  -2.355  22.432  0.00  0.00    -0.292 N 
ATOM      4 HH21 ARG A   1       3.803  -1.531  23.047  0.00  0.00    +0.255 HD
ATOM      5 HH22 ARG A   1       4.432  -3.005  22.224  0.00  0.00    +0.255 HD
ATOM      6  NH1 ARG A   1       1.439  -1.733  22.191  0.00  0.00    -0.292 N 
ATOM      7 HH11 ARG A   1       1.604  -0.911  22.807  0.00  0.00    +0.255 HD
ATOM      8 HH12 ARG A   1       0.494  -1.901  21.790  0.00  0.00    +0.255 HD
ATOM      9  HE  ARG A   1       3.083  -4.266  20.963  0.00  0.00    +0.259 HD
ENDROOT
BRANCH   1  10
ATOM     10  CD  ARG A   1       1.009  -4.003  20.469  0.00  0.00    +0.174 C 
BRANCH  10  11
ATOM     11  CG  ARG A   1       1.128  -5.365  19.741  0.00  0.00    +0.045 C 
BRANCH  11  12
ATOM     12  CB  ARG A   1      -0.032  -5.599  18.831  0.00  0.00    +0.029 C 
BRANCH  12  13
ATOM     13  CA  ARG A   1      -0.186  -7.055  18.354  0.00  0.00    +0.133 C 
BRANCH  13  14
ATOM     14  N   ARG A   1      -1.116  -7.135  17.245  0.00  0.00    -0.239 NA
ATOM     15  H   ARG A   1      -1.877  -6.429  17.175  0.00  0.00    +0.142 HD
ENDBRANCH  13  14
BRANCH  13  16
ATOM     16  C   ARG A   1      -0.673  -7.970  19.492  0.00  0.00    +0.224 C 
ATOM     17  O   ARG A   1      -1.862  -8.014  19.790  0.00  0.00    -0.287 OA
ENDBRANCH  13  16
ENDBRANCH  12  13
ENDBRANCH  11  12
ENDBRANCH  10  11
ENDBRANCH   1  10
TORSDOF 6
REMARK  Name = ../refined-set-2016/2o4z/2o4z_pocket.pdb
REMARK  137 active torsions:
REMARK  status: ('A' for Active; 'I' for Inactive)
REMARK    1  A    between atoms: _1  and  _3
REMARK    2  A    between atoms: _3  and  _4
REMARK    3  A    between atoms: _3  and  _6
REMARK    4  A    between atoms: _6  and  _7
REMARK    5  A    between atoms: _17  and  _19
REMARK    6  A    between atoms: _19  and  _20
REMARK    7  A    between atoms: _19  and  _22
REMARK    8  A    between atoms: _22  and  _23
REMARK    9  A    between atoms: _28  and  _29
REMARK   10  A    between atoms: _31  and  _33
REMARK   11  A    between atoms: _33  and  _34
REMARK   12  A    between atoms: _33  and  _36
REMARK   13  A    between atoms: _36  and  _37
REMARK   14  A    between atoms: _40  and  _41
REMARK   15  A    between atoms: _46  and  _48
REMARK   16  A    between atoms: _48  and  _49
REMARK   17  A    between atoms: _48  and  _51
REMARK   18  A    between atoms: _51  and  _52
REMARK   19  A    between atoms: _57  and  _59
REMARK   20  A    between atoms: _59  and  _60
REMARK   21  A    between atoms: _59  and  _62
REMARK   22  A    between atoms: _62  and  _63
REMARK   23  A    between atoms: _68  and  _70
REMARK   24  A    between atoms: _70  and  _71
REMARK   25  A    between atoms: _74  and  _76
REMARK   26  A    between atoms: _76  and  _77
REMARK   27  A    between atoms: _76  and  _79
REMARK   28  A    between atoms: _79  and  _80
REMARK   29  A    between atoms: _85  and  _87
REMARK   30  A    between atoms: _87  and  _88
REMARK   31  A    between atoms: _87  and  _90
REMARK   32  A    between atoms: _90  and  _91
REMARK   33  A    between atoms: _91  and  _92
REMARK   34  A    between atoms: _97  and  _99
REMARK   35  A    between atoms: _99  and  _100
REMARK   36  A    between atoms: _99  and  _102
REMARK   37  A    between atoms: _102  and  _103
REMARK   38  A    between atoms: _109  and  _111
REMARK   39  A    between atoms: _122  and  _125
REMARK   40  A    between atoms: _125  and  _126
REMARK   41  A    between atoms: _134  and  _135
REMARK   42  A    between atoms: _143  and  _145
REMARK   43  A    between atoms: _145  and  _146
REMARK   44  A    between atoms: _145  and  _148
REMARK   45  A    between atoms: _148  and  _149
REMARK   46  A    between atoms: _149  and  _150
REMARK   47  A    between atoms: _153  and  _155
REMARK   48  A    between atoms: _155  and  _156
REMARK   49  A    between atoms: _155  and  _158
REMARK   50  A    between atoms: _158  and  _159
REMARK   51  A    between atoms: _164  and  _166
REMARK   52  A    between atoms: _166  and  _167
REMARK   53  A    between atoms: _166  and  _169
REMARK   54  A    between atoms: _169  and  _170
REMARK   55  A    between atoms: _170  and  _171
REMARK   56  A    between atoms: _174  and  _176
REMARK   57  A    between atoms: _176  and  _177
REMARK   58  A    between atoms: _176  and  _179
REMARK   59  A    between atoms: _179  and  _180
REMARK   60  A    between atoms: _183  and  _185
REMARK   61  A    between atoms: _185  and  _186
REMARK   62  A    between atoms: _185  and  _188
REMARK   63  A    between atoms: _188  and  _189
REMARK   64  A    between atoms: _190  and  ZN_390
REMARK   65  A    between atoms: _194  and  _196
REMARK   66  A    between atoms: _196  and  _197
REMARK   67  A    between atoms: _196  and  _199
REMARK   68  A    between atoms: _199  and  _200
REMARK   69  A    between atoms: _203  and  _205
REMARK   70  A    between atoms: _205  and  _206
REMARK   71  A    between atoms: _205  and  _208
REMARK   72  A    between atoms: _211  and  _213
REMARK   73  A    between atoms: _213  and  _214
REMARK   74  A    between atoms: _213  and  _216
REMARK   75  A    between atoms: _216  and  _217
REMARK   76  A    between atoms: _222  and  _224
REMARK   77  A    between atoms: _224  and  _225
REMARK   78  A    between atoms: _224  and  _227
REMARK   79  A    between atoms: _227  and  _228
REMARK   80  A    between atoms: _234  and  _236
REMARK   81  A    between atoms: _236  and  _237
REMARK   82  A    between atoms: _236  and  _239
REMARK   83  A    between atoms: _239  and  _240
REMARK   84  A    between atoms: _243  and  _245
REMARK   85  A    between atoms: _245  and  _246
REMARK   86  A    between atoms: _249  and  _251
REMARK   87  A    between atoms: _251  and  _252
REMARK   88  A    between atoms: _251  and  _254
REMARK   89  A    between atoms: _257  and  _259
REMARK   90  A    between atoms: _259  and  _260
REMARK   91  A    between atoms: _259  and  _262
REMARK   92  A    between atoms: _262  and  _263
REMARK   93  A    between atoms: _266  and  _268
REMARK   94  A    between atoms: _268  and  _269
REMARK   95  A    between atoms: _271  and  _273
REMARK   96  A    between atoms: _273  and  _274
REMARK   97  A    between atoms: _273  and  _276
REMARK   98  A    between atoms: _276  and  _277
REMARK   99  A    between atoms: _279  and  _281
REMARK  100  A    between atoms: _281  and  _282
REMARK  101  A    between atoms: _281  and  _284
REMARK  102  A    between atoms: _284  and  _285
REMARK  103  A    between atoms: _288  and  _290
REMARK  104  A    between atoms: _290  and  _291
REMARK  105  A    between atoms: _290  and  _293
REMARK  106  A    between atoms: _293  and  _294
REMARK  107  A    between atoms: _297  and  _299
REMARK  108  A    between atoms: _299  and  _300
REMARK  109  A    between atoms: _299  and  _302
REMARK  110  A    between atoms: _302  and  _303
REMARK  111  A    between atoms: _307  and  _308
REMARK  112  A    between atoms: _314  and  _315
REMARK  113  A    between atoms: _320  and  _322
REMARK  114  A    between atoms: _322  and  _323
REMARK  115  A    between atoms: _322  and  _325
REMARK  116  A    between atoms: _325  and  _326
REMARK  117  A    between atoms: _329  and  _331
REMARK  118  A    between atoms: _331  and  _332
REMARK  119  A    between atoms: _331  and  _334
REMARK  120  A    between atoms: _334  and  _335
REMARK  121  A    between atoms: _338  and  _340
REMARK  122  A    between atoms: _340  and  _341
REMARK  123  A    between atoms: _340  and  _343
REMARK  124  A    between atoms: _346  and  _348
REMARK  125  A    between atoms: _348  and  _349
REMARK  126  A    between atoms: _348  and  _351
REMARK  127  A    between atoms: _351  and  _352
REMARK  128  A    between atoms: _362  and  _364
REMARK  129  A    between atoms: _364  and  _365
REMARK  130  A    between atoms: _364  and  _367
REMARK  131  A    between atoms: _367  and  _368
REMARK  132  A    between atoms: _373  and  _375
REMARK  133  A    between atoms: _375  and  _376
REMARK  134  A    between atoms: _375  and  _378
REMARK  135  A    between atoms: _378  and  _379
REMARK  136  A    between atoms: _379  and  _380
REMARK  137  A    between atoms: _380  and  _381
REMARK                            x       y       z     vdW  Elec       q    Type
REMARK                         _______ _______ _______ _____ _____    ______ ____
ROOT
ATOM      1  O   HOH     1      -1.288  -3.996  15.700  0.00  0.00    +0.000 OA
ENDROOT
TORSDOF 0
REMARK  Name = ../refined-set-2016/2o4z/2o4z_pocket.pdb
REMARK  137 active torsions:
REMARK  status: ('A' for Active; 'I' for Inactive)
REMARK    1  A    between atoms: _1  and  _3
REMARK    2  A    between atoms: _3  and  _4
REMARK    3  A    between atoms: _3  and  _6
REMARK    4  A    between atoms: _6  and  _7
REMARK    5  A    between atoms: _17  and  _19
REMARK    6  A    between atoms: _19  and  _20
REMARK    7  A    between atoms: _19  and  _22
REMARK    8  A    between atoms: _22  and  _23
REMARK    9  A    between atoms: _28  and  _29
REMARK   10  A    between atoms: _31  and  _33
REMARK   11  A    between atoms: _33  and  _34
REMARK   12  A    between atoms: _33  and  _36
REMARK   13  A    between atoms: _36  and  _37
REMARK   14  A    between atoms: _40  and  _41
REMARK   15  A    between atoms: _46  and  _48
REMARK   16  A    between atoms: _48  and  _49
REMARK   17  A    between atoms: _48  and  _51
REMARK   18  A    between atoms: _51  and  _52
REMARK   19  A    between atoms: _57  and  _59
REMARK   20  A    between atoms: _59  and  _60
REMARK   21  A    between atoms: _59  and  _62
REMARK   22  A    between atoms: _62  and  _63
REMARK   23  A    between atoms: _68  and  _70
REMARK   24  A    between atoms: _70  and  _71
REMARK   25  A    between atoms: _74  and  _76
REMARK   26  A    between atoms: _76  and  _77
REMARK   27  A    between atoms: _76  and  _79
REMARK   28  A    between atoms: _79  and  _80
REMARK   29  A    between atoms: _85  and  _87
REMARK   30  A    between atoms: _87  and  _88
REMARK   31  A    between atoms: _87  and  _90
REMARK   32  A    between atoms: _90  and  _91
REMARK   33  A    between atoms: _91  and  _92
REMARK   34  A    between atoms: _97  and  _99
REMARK   35  A    between atoms: _99  and  _100
REMARK   36  A    between atoms: _99  and  _102
REMARK   37  A    between atoms: _102  and  _103
REMARK   38  A    between atoms: _109  and  _111
REMARK   39  A    between atoms: _122  and  _125
REMARK   40  A    between atoms: _125  and  _126
REMARK   41  A    between atoms: _134  and  _135
REMARK   42  A    between atoms: _143  and  _145
REMARK   43  A    between atoms: _145  and  _146
REMARK   44  A    between atoms: _145  and  _148
REMARK   45  A    between atoms: _148  and  _149
REMARK   46  A    between atoms: _149  and  _150
REMARK   47  A    between atoms: _153  and  _155
REMARK   48  A    between atoms: _155  and  _156
REMARK   49  A    between atoms: _155  and  _158
REMARK   50  A    between atoms: _158  and  _159
REMARK   51  A    between atoms: _164  and  _166
REMARK   52  A    between atoms: _166  and  _167
REMARK   53  A    between atoms: _166  and  _169
REMARK   54  A    between atoms: _169  and  _170
REMARK   55  A    between atoms: _170  and  _171
REMARK   56  A    between atoms: _174  and  _176
REMARK   57  A    between atoms: _176  and  _177
REMARK   58  A    between atoms: _176  and  _179
REMARK   59  A    between atoms: _179  and  _180
REMARK   60  A    between atoms: _183  and  _185
REMARK   61  A    between atoms: _185  and  _186
REMARK   62  A    between atoms: _185  and  _188
REMARK   63  A    between atoms: _188  and  _189
REMARK   64  A    between atoms: _190  and  ZN_390
REMARK   65  A    between atoms: _194  and  _196
REMARK   66  A    between atoms: _196  and  _197
REMARK   67  A    between atoms: _196  and  _199
REMARK   68  A    between atoms: _199  and  _200
REMARK   69  A    between atoms: _203  and  _205
REMARK   70  A    between atoms: _205  and  _206
REMARK   71  A    between atoms: _205  and  _208
REMARK   72  A    between atoms: _211  and  _213
REMARK   73  A    between atoms: _213  and  _214
REMARK   74  A    between atoms: _213  and  _216
REMARK   75  A    between atoms: _216  and  _217
REMARK   76  A    between atoms: _222  and  _224
REMARK   77  A    between atoms: _224  and  _225
REMARK   78  A    between atoms: _224  and  _227
REMARK   79  A    between atoms: _227  and  _228
REMARK   80  A    between atoms: _234  and  _236
REMARK   81  A    between atoms: _236  and  _237
REMARK   82  A    between atoms: _236  and  _239
REMARK   83  A    between atoms: _239  and  _240
REMARK   84  A    between atoms: _243  and  _245
REMARK   85  A    between atoms: _245  and  _246
REMARK   86  A    between atoms: _249  and  _251
REMARK   87  A    between atoms: _251  and  _252
REMARK   88  A    between atoms: _251  and  _254
REMARK   89  A    between atoms: _257  and  _259
REMARK   90  A    between atoms: _259  and  _260
REMARK   91  A    between atoms: _259  and  _262
REMARK   92  A    between atoms: _262  and  _263
REMARK   93  A    between atoms: _266  and  _268
REMARK   94  A    between atoms: _268  and  _269
REMARK   95  A    between atoms: _271  and  _273
REMARK   96  A    between atoms: _273  and  _274
REMARK   97  A    between atoms: _273  and  _276
REMARK   98  A    between atoms: _276  and  _277
REMARK   99  A    between atoms: _279  and  _281
REMARK  100  A    between atoms: _281  and  _282
REMARK  101  A    between atoms: _281  and  _284
REMARK  102  A    between atoms: _284  and  _285
REMARK  103  A    between atoms: _288  and  _290
REMARK  104  A    between atoms: _290  and  _291
REMARK  105  A    between atoms: _290  and  _293
REMARK  106  A    between atoms: _293  and  _294
REMARK  107  A    between atoms: _297  and  _299
REMARK  108  A    between atoms: _299  and  _300
REMARK  109  A    between atoms: _299  and  _302
REMARK  110  A    between atoms: _302  and  _303
REMARK  111  A    between atoms: _307  and  _308
REMARK  112  A    between atoms: _314  and  _315
REMARK  113  A    between atoms: _320  and  _322
REMARK  114  A    between atoms: _322  and  _323
REMARK  115  A    between atoms: _322  and  _325
REMARK  116  A    between atoms: _325  and  _326
REMARK  117  A    between atoms: _329  and  _331
REMARK  118  A    between atoms: _331  and  _332
REMARK  119  A    between atoms: _331  and  _334
REMARK  120  A    between atoms: _334  and  _335
REMARK  121  A    between atoms: _338  and  _340
REMARK  122  A    between atoms: _340  and  _341
REMARK  123  A    between atoms: _340  and  _343
REMARK  124  A    between atoms: _346  and  _348
REMARK  125  A    between atoms: _348  and  _349
REMARK  126  A    between atoms: _348  and  _351
REMARK  127  A    between atoms: _351  and  _352
REMARK  128  A    between atoms: _362  and  _364
REMARK  129  A    between atoms: _364  and  _365
REMARK  130  A    between atoms: _364  and  _367
REMARK  131  A    between atoms: _367  and  _368
REMARK  132  A    between atoms: _373  and  _375
REMARK  133  A    between atoms: _375  and  _376
REMARK  134  A    between atoms: _375  and  _378
REMARK  135  A    between atoms: _378  and  _379
REMARK  136  A    between atoms: _379  and  _380
REMARK  137  A    between atoms: _380  and  _381
REMARK                            x       y       z     vdW  Elec       q    Type
REMARK                         _______ _______ _______ _____ _____    ______ ____
ROOT
ATOM      1  O   HOH     1      -2.233  -2.901  11.584  0.00  0.00    +0.000 OA
ENDROOT
TORSDOF 0
REMARK  Name = ../refined-set-2016/2o4z/2o4z_pocket.pdb
REMARK  137 active torsions:
REMARK  status: ('A' for Active; 'I' for Inactive)
REMARK    1  A    between atoms: _1  and  _3
REMARK    2  A    between atoms: _3  and  _4
REMARK    3  A    between atoms: _3  and  _6
REMARK    4  A    between atoms: _6  and  _7
REMARK    5  A    between atoms: _17  and  _19
REMARK    6  A    between atoms: _19  and  _20
REMARK    7  A    between atoms: _19  and  _22
REMARK    8  A    between atoms: _22  and  _23
REMARK    9  A    between atoms: _28  and  _29
REMARK   10  A    between atoms: _31  and  _33
REMARK   11  A    between atoms: _33  and  _34
REMARK   12  A    between atoms: _33  and  _36
REMARK   13  A    between atoms: _36  and  _37
REMARK   14  A    between atoms: _40  and  _41
REMARK   15  A    between atoms: _46  and  _48
REMARK   16  A    between atoms: _48  and  _49
REMARK   17  A    between atoms: _48  and  _51
REMARK   18  A    between atoms: _51  and  _52
REMARK   19  A    between atoms: _57  and  _59
REMARK   20  A    between atoms: _59  and  _60
REMARK   21  A    between atoms: _59  and  _62
REMARK   22  A    between atoms: _62  and  _63
REMARK   23  A    between atoms: _68  and  _70
REMARK   24  A    between atoms: _70  and  _71
REMARK   25  A    between atoms: _74  and  _76
REMARK   26  A    between atoms: _76  and  _77
REMARK   27  A    between atoms: _76  and  _79
REMARK   28  A    between atoms: _79  and  _80
REMARK   29  A    between atoms: _85  and  _87
REMARK   30  A    between atoms: _87  and  _88
REMARK   31  A    between atoms: _87  and  _90
REMARK   32  A    between atoms: _90  and  _91
REMARK   33  A    between atoms: _91  and  _92
REMARK   34  A    between atoms: _97  and  _99
REMARK   35  A    between atoms: _99  and  _100
REMARK   36  A    between atoms: _99  and  _102
REMARK   37  A    between atoms: _102  and  _103
REMARK   38  A    between atoms: _109  and  _111
REMARK   39  A    between atoms: _122  and  _125
REMARK   40  A    between atoms: _125  and  _126
REMARK   41  A    between atoms: _134  and  _135
REMARK   42  A    between atoms: _143  and  _145
REMARK   43  A    between atoms: _145  and  _146
REMARK   44  A    between atoms: _145  and  _148
REMARK   45  A    between atoms: _148  and  _149
REMARK   46  A    between atoms: _149  and  _150
REMARK   47  A    between atoms: _153  and  _155
REMARK   48  A    between atoms: _155  and  _156
REMARK   49  A    between atoms: _155  and  _158
REMARK   50  A    between atoms: _158  and  _159
REMARK   51  A    between atoms: _164  and  _166
REMARK   52  A    between atoms: _166  and  _167
REMARK   53  A    between atoms: _166  and  _169
REMARK   54  A    between atoms: _169  and  _170
REMARK   55  A    between atoms: _170  and  _171
REMARK   56  A    between atoms: _174  and  _176
REMARK   57  A    between atoms: _176  and  _177
REMARK   58  A    between atoms: _176  and  _179
REMARK   59  A    between atoms: _179  and  _180
REMARK   60  A    between atoms: _183  and  _185
REMARK   61  A    between atoms: _185  and  _186
REMARK   62  A    between atoms: _185  and  _188
REMARK   63  A    between atoms: _188  and  _189
REMARK   64  A    between atoms: _190  and  ZN_390
REMARK   65  A    between atoms: _194  and  _196
REMARK   66  A    between atoms: _196  and  _197
REMARK   67  A    between atoms: _196  and  _199
REMARK   68  A    between atoms: _199  and  _200
REMARK   69  A    between atoms: _203  and  _205
REMARK   70  A    between atoms: _205  and  _206
REMARK   71  A    between atoms: _205  and  _208
REMARK   72  A    between atoms: _211  and  _213
REMARK   73  A    between atoms: _213  and  _214
REMARK   74  A    between atoms: _213  and  _216
REMARK   75  A    between atoms: _216  and  _217
REMARK   76  A    between atoms: _222  and  _224
REMARK   77  A    between atoms: _224  and  _225
REMARK   78  A    between atoms: _224  and  _227
REMARK   79  A    between atoms: _227  and  _228
REMARK   80  A    between atoms: _234  and  _236
REMARK   81  A    between atoms: _236  and  _237
REMARK   82  A    between atoms: _236  and  _239
REMARK   83  A    between atoms: _239  and  _240
REMARK   84  A    between atoms: _243  and  _245
REMARK   85  A    between atoms: _245  and  _246
REMARK   86  A    between atoms: _249  and  _251
REMARK   87  A    between atoms: _251  and  _252
REMARK   88  A    between atoms: _251  and  _254
REMARK   89  A    between atoms: _257  and  _259
REMARK   90  A    between atoms: _259  and  _260
REMARK   91  A    between atoms: _259  and  _262
REMARK   92  A    between atoms: _262  and  _263
REMARK   93  A    between atoms: _266  and  _268
REMARK   94  A    between atoms: _268  and  _269
REMARK   95  A    between atoms: _271  and  _273
REMARK   96  A    between atoms: _273  and  _274
REMARK   97  A    between atoms: _273  and  _276
REMARK   98  A    between atoms: _276  and  _277
REMARK   99  A    between atoms: _279  and  _281
REMARK  100  A    between atoms: _281  and  _282
REMARK  101  A    between atoms: _281  and  _284
REMARK  102  A    between atoms: _284  and  _285
REMARK  103  A    between atoms: _288  and  _290
REMARK  104  A    between atoms: _290  and  _291
REMARK  105  A    between atoms: _290  and  _293
REMARK  106  A    between atoms: _293  and  _294
REMARK  107  A    between atoms: _297  and  _299
REMARK  108  A    between atoms: _299  and  _300
REMARK  109  A    between atoms: _299  and  _302
REMARK  110  A    between atoms: _302  and  _303
REMARK  111  A    between atoms: _307  and  _308
REMARK  112  A    between atoms: _314  and  _315
REMARK  113  A    between atoms: _320  and  _322
REMARK  114  A    between atoms: _322  and  _323
REMARK  115  A    between atoms: _322  and  _325
REMARK  116  A    between atoms: _325  and  _326
REMARK  117  A    between atoms: _329  and  _331
REMARK  118  A    between atoms: _331  and  _332
REMARK  119  A    between atoms: _331  and  _334
REMARK  120  A    between atoms: _334  and  _335
REMARK  121  A    between atoms: _338  and  _340
REMARK  122  A    between atoms: _340  and  _341
REMARK  123  A    between atoms: _340  and  _343
REMARK  124  A    between atoms: _346  and  _348
REMARK  125  A    between atoms: _348  and  _349
REMARK  126  A    between atoms: _348  and  _351
REMARK  127  A    between atoms: _351  and  _352
REMARK  128  A    between atoms: _362  and  _364
REMARK  129  A    between atoms: _364  and  _365
REMARK  130  A    between atoms: _364  and  _367
REMARK  131  A    between atoms: _367  and  _368
REMARK  132  A    between atoms: _373  and  _375
REMARK  133  A    between atoms: _375  and  _376
REMARK  134  A    between atoms: _375  and  _378
REMARK  135  A    between atoms: _378  and  _379
REMARK  136  A    between atoms: _379  and  _380
REMARK  137  A    between atoms: _380  and  _381
REMARK                            x       y       z     vdW  Elec       q    Type
REMARK                         _______ _______ _______ _____ _____    ______ ____
ROOT
ATOM      1  O   HOH     1      -5.214   5.099  14.558  0.00  0.00    +0.000 OA
ENDROOT
TORSDOF 0
REMARK  Name = ../refined-set-2016/2o4z/2o4z_pocket.pdb
REMARK  137 active torsions:
REMARK  status: ('A' for Active; 'I' for Inactive)
REMARK    1  A    between atoms: _1  and  _3
REMARK    2  A    between atoms: _3  and  _4
REMARK    3  A    between atoms: _3  and  _6
REMARK    4  A    between atoms: _6  and  _7
REMARK    5  A    between atoms: _17  and  _19
REMARK    6  A    between atoms: _19  and  _20
REMARK    7  A    between atoms: _19  and  _22
REMARK    8  A    between atoms: _22  and  _23
REMARK    9  A    between atoms: _28  and  _29
REMARK   10  A    between atoms: _31  and  _33
REMARK   11  A    between atoms: _33  and  _34
REMARK   12  A    between atoms: _33  and  _36
REMARK   13  A    between atoms: _36  and  _37
REMARK   14  A    between atoms: _40  and  _41
REMARK   15  A    between atoms: _46  and  _48
REMARK   16  A    between atoms: _48  and  _49
REMARK   17  A    between atoms: _48  and  _51
REMARK   18  A    between atoms: _51  and  _52
REMARK   19  A    between atoms: _57  and  _59
REMARK   20  A    between atoms: _59  and  _60
REMARK   21  A    between atoms: _59  and  _62
REMARK   22  A    between atoms: _62  and  _63
REMARK   23  A    between atoms: _68  and  _70
REMARK   24  A    between atoms: _70  and  _71
REMARK   25  A    between atoms: _74  and  _76
REMARK   26  A    between atoms: _76  and  _77
REMARK   27  A    between atoms: _76  and  _79
REMARK   28  A    between atoms: _79  and  _80
REMARK   29  A    between atoms: _85  and  _87
REMARK   30  A    between atoms: _87  and  _88
REMARK   31  A    between atoms: _87  and  _90
REMARK   32  A    between atoms: _90  and  _91
REMARK   33  A    between atoms: _91  and  _92
REMARK   34  A    between atoms: _97  and  _99
REMARK   35  A    between atoms: _99  and  _100
REMARK   36  A    between atoms: _99  and  _102
REMARK   37  A    between atoms: _102  and  _103
REMARK   38  A    between atoms: _109  and  _111
REMARK   39  A    between atoms: _122  and  _125
REMARK   40  A    between atoms: _125  and  _126
REMARK   41  A    between atoms: _134  and  _135
REMARK   42  A    between atoms: _143  and  _145
REMARK   43  A    between atoms: _145  and  _146
REMARK   44  A    between atoms: _145  and  _148
REMARK   45  A    between atoms: _148  and  _149
REMARK   46  A    between atoms: _149  and  _150
REMARK   47  A    between atoms: _153  and  _155
REMARK   48  A    between atoms: _155  and  _156
REMARK   49  A    between atoms: _155  and  _158
REMARK   50  A    between atoms: _158  and  _159
REMARK   51  A    between atoms: _164  and  _166
REMARK   52  A    between atoms: _166  and  _167
REMARK   53  A    between atoms: _166  and  _169
REMARK   54  A    between atoms: _169  and  _170
REMARK   55  A    between atoms: _170  and  _171
REMARK   56  A    between atoms: _174  and  _176
REMARK   57  A    between atoms: _176  and  _177
REMARK   58  A    between atoms: _176  and  _179
REMARK   59  A    between atoms: _179  and  _180
REMARK   60  A    between atoms: _183  and  _185
REMARK   61  A    between atoms: _185  and  _186
REMARK   62  A    between atoms: _185  and  _188
REMARK   63  A    between atoms: _188  and  _189
REMARK   64  A    between atoms: _190  and  ZN_390
REMARK   65  A    between atoms: _194  and  _196
REMARK   66  A    between atoms: _196  and  _197
REMARK   67  A    between atoms: _196  and  _199
REMARK   68  A    between atoms: _199  and  _200
REMARK   69  A    between atoms: _203  and  _205
REMARK   70  A    between atoms: _205  and  _206
REMARK   71  A    between atoms: _205  and  _208
REMARK   72  A    between atoms: _211  and  _213
REMARK   73  A    between atoms: _213  and  _214
REMARK   74  A    between atoms: _213  and  _216
REMARK   75  A    between atoms: _216  and  _217
REMARK   76  A    between atoms: _222  and  _224
REMARK   77  A    between atoms: _224  and  _225
REMARK   78  A    between atoms: _224  and  _227
REMARK   79  A    between atoms: _227  and  _228
REMARK   80  A    between atoms: _234  and  _236
REMARK   81  A    between atoms: _236  and  _237
REMARK   82  A    between atoms: _236  and  _239
REMARK   83  A    between atoms: _239  and  _240
REMARK   84  A    between atoms: _243  and  _245
REMARK   85  A    between atoms: _245  and  _246
REMARK   86  A    between atoms: _249  and  _251
REMARK   87  A    between atoms: _251  and  _252
REMARK   88  A    between atoms: _251  and  _254
REMARK   89  A    between atoms: _257  and  _259
REMARK   90  A    between atoms: _259  and  _260
REMARK   91  A    between atoms: _259  and  _262
REMARK   92  A    between atoms: _262  and  _263
REMARK   93  A    between atoms: _266  and  _268
REMARK   94  A    between atoms: _268  and  _269
REMARK   95  A    between atoms: _271  and  _273
REMARK   96  A    between atoms: _273  and  _274
REMARK   97  A    between atoms: _273  and  _276
REMARK   98  A    between atoms: _276  and  _277
REMARK   99  A    between atoms: _279  and  _281
REMARK  100  A    between atoms: _281  and  _282
REMARK  101  A    between atoms: _281  and  _284
REMARK  102  A    between atoms: _284  and  _285
REMARK  103  A    between atoms: _288  and  _290
REMARK  104  A    between atoms: _290  and  _291
REMARK  105  A    between atoms: _290  and  _293
REMARK  106  A    between atoms: _293  and  _294
REMARK  107  A    between atoms: _297  and  _299
REMARK  108  A    between atoms: _299  and  _300
REMARK  109  A    between atoms: _299  and  _302
REMARK  110  A    between atoms: _302  and  _303
REMARK  111  A    between atoms: _307  and  _308
REMARK  112  A    between atoms: _314  and  _315
REMARK  113  A    between atoms: _320  and  _322
REMARK  114  A    between atoms: _322  and  _323
REMARK  115  A    between atoms: _322  and  _325
REMARK  116  A    between atoms: _325  and  _326
REMARK  117  A    between atoms: _329  and  _331
REMARK  118  A    between atoms: _331  and  _332
REMARK  119  A    between atoms: _331  and  _334
REMARK  120  A    between atoms: _334  and  _335
REMARK  121  A    between atoms: _338  and  _340
REMARK  122  A    between atoms: _340  and  _341
REMARK  123  A    between atoms: _340  and  _343
REMARK  124  A    between atoms: _346  and  _348
REMARK  125  A    between atoms: _348  and  _349
REMARK  126  A    between atoms: _348  and  _351
REMARK  127  A    between atoms: _351  and  _352
REMARK  128  A    between atoms: _362  and  _364
REMARK  129  A    between atoms: _364  and  _365
REMARK  130  A    between atoms: _364  and  _367
REMARK  131  A    between atoms: _367  and  _368
REMARK  132  A    between atoms: _373  and  _375
REMARK  133  A    between atoms: _375  and  _376
REMARK  134  A    between atoms: _375  and  _378
REMARK  135  A    between atoms: _378  and  _379
REMARK  136  A    between atoms: _379  and  _380
REMARK  137  A    between atoms: _380  and  _381
REMARK                            x       y       z     vdW  Elec       q    Type
REMARK                         _______ _______ _______ _____ _____    ______ ____
ROOT
ATOM      1  O   HOH     1      -6.802   7.985  11.048  0.00  0.00    +0.000 OA
ENDROOT
TORSDOF 0
REMARK  Name = ../refined-set-2016/2o4z/2o4z_pocket.pdb
REMARK  137 active torsions:
REMARK  status: ('A' for Active; 'I' for Inactive)
REMARK    1  A    between atoms: _1  and  _3
REMARK    2  A    between atoms: _3  and  _4
REMARK    3  A    between atoms: _3  and  _6
REMARK    4  A    between atoms: _6  and  _7
REMARK    5  A    between atoms: _17  and  _19
REMARK    6  A    between atoms: _19  and  _20
REMARK    7  A    between atoms: _19  and  _22
REMARK    8  A    between atoms: _22  and  _23
REMARK    9  A    between atoms: _28  and  _29
REMARK   10  A    between atoms: _31  and  _33
REMARK   11  A    between atoms: _33  and  _34
REMARK   12  A    between atoms: _33  and  _36
REMARK   13  A    between atoms: _36  and  _37
REMARK   14  A    between atoms: _40  and  _41
REMARK   15  A    between atoms: _46  and  _48
REMARK   16  A    between atoms: _48  and  _49
REMARK   17  A    between atoms: _48  and  _51
REMARK   18  A    between atoms: _51  and  _52
REMARK   19  A    between atoms: _57  and  _59
REMARK   20  A    between atoms: _59  and  _60
REMARK   21  A    between atoms: _59  and  _62
REMARK   22  A    between atoms: _62  and  _63
REMARK   23  A    between atoms: _68  and  _70
REMARK   24  A    between atoms: _70  and  _71
REMARK   25  A    between atoms: _74  and  _76
REMARK   26  A    between atoms: _76  and  _77
REMARK   27  A    between atoms: _76  and  _79
REMARK   28  A    between atoms: _79  and  _80
REMARK   29  A    between atoms: _85  and  _87
REMARK   30  A    between atoms: _87  and  _88
REMARK   31  A    between atoms: _87  and  _90
REMARK   32  A    between atoms: _90  and  _91
REMARK   33  A    between atoms: _91  and  _92
REMARK   34  A    between atoms: _97  and  _99
REMARK   35  A    between atoms: _99  and  _100
REMARK   36  A    between atoms: _99  and  _102
REMARK   37  A    between atoms: _102  and  _103
REMARK   38  A    between atoms: _109  and  _111
REMARK   39  A    between atoms: _122  and  _125
REMARK   40  A    between atoms: _125  and  _126
REMARK   41  A    between atoms: _134  and  _135
REMARK   42  A    between atoms: _143  and  _145
REMARK   43  A    between atoms: _145  and  _146
REMARK   44  A    between atoms: _145  and  _148
REMARK   45  A    between atoms: _148  and  _149
REMARK   46  A    between atoms: _149  and  _150
REMARK   47  A    between atoms: _153  and  _155
REMARK   48  A    between atoms: _155  and  _156
REMARK   49  A    between atoms: _155  and  _158
REMARK   50  A    between atoms: _158  and  _159
REMARK   51  A    between atoms: _164  and  _166
REMARK   52  A    between atoms: _166  and  _167
REMARK   53  A    between atoms: _166  and  _169
REMARK   54  A    between atoms: _169  and  _170
REMARK   55  A    between atoms: _170  and  _171
REMARK   56  A    between atoms: _174  and  _176
REMARK   57  A    between atoms: _176  and  _177
REMARK   58  A    between atoms: _176  and  _179
REMARK   59  A    between atoms: _179  and  _180
REMARK   60  A    between atoms: _183  and  _185
REMARK   61  A    between atoms: _185  and  _186
REMARK   62  A    between atoms: _185  and  _188
REMARK   63  A    between atoms: _188  and  _189
REMARK   64  A    between atoms: _190  and  ZN_390
REMARK   65  A    between atoms: _194  and  _196
REMARK   66  A    between atoms: _196  and  _197
REMARK   67  A    between atoms: _196  and  _199
REMARK   68  A    between atoms: _199  and  _200
REMARK   69  A    between atoms: _203  and  _205
REMARK   70  A    between atoms: _205  and  _206
REMARK   71  A    between atoms: _205  and  _208
REMARK   72  A    between atoms: _211  and  _213
REMARK   73  A    between atoms: _213  and  _214
REMARK   74  A    between atoms: _213  and  _216
REMARK   75  A    between atoms: _216  and  _217
REMARK   76  A    between atoms: _222  and  _224
REMARK   77  A    between atoms: _224  and  _225
REMARK   78  A    between atoms: _224  and  _227
REMARK   79  A    between atoms: _227  and  _228
REMARK   80  A    between atoms: _234  and  _236
REMARK   81  A    between atoms: _236  and  _237
REMARK   82  A    between atoms: _236  and  _239
REMARK   83  A    between atoms: _239  and  _240
REMARK   84  A    between atoms: _243  and  _245
REMARK   85  A    between atoms: _245  and  _246
REMARK   86  A    between atoms: _249  and  _251
REMARK   87  A    between atoms: _251  and  _252
REMARK   88  A    between atoms: _251  and  _254
REMARK   89  A    between atoms: _257  and  _259
REMARK   90  A    between atoms: _259  and  _260
REMARK   91  A    between atoms: _259  and  _262
REMARK   92  A    between atoms: _262  and  _263
REMARK   93  A    between atoms: _266  and  _268
REMARK   94  A    between atoms: _268  and  _269
REMARK   95  A    between atoms: _271  and  _273
REMARK   96  A    between atoms: _273  and  _274
REMARK   97  A    between atoms: _273  and  _276
REMARK   98  A    between atoms: _276  and  _277
REMARK   99  A    between atoms: _279  and  _281
REMARK  100  A    between atoms: _281  and  _282
REMARK  101  A    between atoms: _281  and  _284
REMARK  102  A    between atoms: _284  and  _285
REMARK  103  A    between atoms: _288  and  _290
REMARK  104  A    between atoms: _290  and  _291
REMARK  105  A    between atoms: _290  and  _293
REMARK  106  A    between atoms: _293  and  _294
REMARK  107  A    between atoms: _297  and  _299
REMARK  108  A    between atoms: _299  and  _300
REMARK  109  A    between atoms: _299  and  _302
REMARK  110  A    between atoms: _302  and  _303
REMARK  111  A    between atoms: _307  and  _308
REMARK  112  A    between atoms: _314  and  _315
REMARK  113  A    between atoms: _320  and  _322
REMARK  114  A    between atoms: _322  and  _323
REMARK  115  A    between atoms: _322  and  _325
REMARK  116  A    between atoms: _325  and  _326
REMARK  117  A    between atoms: _329  and  _331
REMARK  118  A    between atoms: _331  and  _332
REMARK  119  A    between atoms: _331  and  _334
REMARK  120  A    between atoms: _334  and  _335
REMARK  121  A    between atoms: _338  and  _340
REMARK  122  A    between atoms: _340  and  _341
REMARK  123  A    between atoms: _340  and  _343
REMARK  124  A    between atoms: _346  and  _348
REMARK  125  A    between atoms: _348  and  _349
REMARK  126  A    between atoms: _348  and  _351
REMARK  127  A    between atoms: _351  and  _352
REMARK  128  A    between atoms: _362  and  _364
REMARK  129  A    between atoms: _364  and  _365
REMARK  130  A    between atoms: _364  and  _367
REMARK  131  A    between atoms: _367  and  _368
REMARK  132  A    between atoms: _373  and  _375
REMARK  133  A    between atoms: _375  and  _376
REMARK  134  A    between atoms: _375  and  _378
REMARK  135  A    between atoms: _378  and  _379
REMARK  136  A    between atoms: _379  and  _380
REMARK  137  A    between atoms: _380  and  _381
REMARK                            x       y       z     vdW  Elec       q    Type
REMARK                         _______ _______ _______ _____ _____    ______ ____
ROOT
ATOM      1  O   HOH     1      -3.853  -0.883  11.746  0.00  0.00    +0.000 OA
ENDROOT
TORSDOF 0
