REMARK  Name = ../refined-set-2016/1fm9/1fm9_pocket.pdb
REMARK  266 active torsions:
REMARK  status: ('A' for Active; 'I' for Inactive)
REMARK    1  A    between atoms: _1  and  _3
REMARK    2  A    between atoms: _3  and  _4
REMARK    3  A    between atoms: _3  and  _6
REMARK    4  A    between atoms: _6  and  _7
REMARK    5  A    between atoms: _10  and  _12
REMARK    6  A    between atoms: _12  and  _13
REMARK    7  A    between atoms: _12  and  _15
REMARK    8  A    between atoms: _15  and  _16
REMARK    9  A    between atoms: _19  and  _21
REMARK   10  A    between atoms: _21  and  _22
REMARK   11  A    between atoms: _24  and  _26
REMARK   12  A    between atoms: _26  and  _27
REMARK   13  A    between atoms: _26  and  _29
REMARK   14  A    between atoms: _29  and  _30
REMARK   15  A    between atoms: _30  and  _31
REMARK   16  A    between atoms: _34  and  _36
REMARK   17  A    between atoms: _36  and  _37
REMARK   18  A    between atoms: _36  and  _39
REMARK   19  A    between atoms: _39  and  _40
REMARK   20  A    between atoms: _44  and  _45
REMARK   21  A    between atoms: _50  and  _52
REMARK   22  A    between atoms: _52  and  _53
REMARK   23  A    between atoms: _52  and  _55
REMARK   24  A    between atoms: _55  and  _56
REMARK   25  A    between atoms: _59  and  _61
REMARK   26  A    between atoms: _61  and  _62
REMARK   27  A    between atoms: _61  and  _64
REMARK   28  A    between atoms: _67  and  _69
REMARK   29  A    between atoms: _69  and  _70
REMARK   30  A    between atoms: _73  and  _75
REMARK   31  A    between atoms: _75  and  _76
REMARK   32  A    between atoms: _75  and  _78
REMARK   33  A    between atoms: _78  and  _79
REMARK   34  A    between atoms: _82  and  _84
REMARK   35  A    between atoms: _84  and  _85
REMARK   36  A    between atoms: _84  and  _87
REMARK   37  A    between atoms: _87  and  _88
REMARK   38  A    between atoms: _88  and  _89
REMARK   39  A    between atoms: _89  and  _90
REMARK   40  A    between atoms: _99  and  _101
REMARK   41  A    between atoms: _101  and  _102
REMARK   42  A    between atoms: _101  and  _104
REMARK   43  A    between atoms: _104  and  _105
REMARK   44  A    between atoms: _108  and  _110
REMARK   45  A    between atoms: _110  and  _111
REMARK   46  A    between atoms: _110  and  _113
REMARK   47  A    between atoms: _113  and  _114
REMARK   48  A    between atoms: _120  and  _122
REMARK   49  A    between atoms: _122  and  _123
REMARK   50  A    between atoms: _122  and  _125
REMARK   51  A    between atoms: _125  and  _126
REMARK   52  A    between atoms: _126  and  _127
REMARK   53  A    between atoms: _132  and  _134
REMARK   54  A    between atoms: _134  and  _135
REMARK   55  A    between atoms: _137  and  _139
REMARK   56  A    between atoms: _139  and  _140
REMARK   57  A    between atoms: _139  and  _142
REMARK   58  A    between atoms: _144  and  _146
REMARK   59  A    between atoms: _146  and  _147
REMARK   60  A    between atoms: _146  and  _149
REMARK   61  A    between atoms: _149  and  _150
REMARK   62  A    between atoms: _150  and  _151
REMARK   63  A    between atoms: _156  and  _158
REMARK   64  A    between atoms: _158  and  _159
REMARK   65  A    between atoms: _158  and  _161
REMARK   66  A    between atoms: _161  and  _162
REMARK   67  A    between atoms: _168  and  _170
REMARK   68  A    between atoms: _170  and  _171
REMARK   69  A    between atoms: _170  and  _173
REMARK   70  A    between atoms: _173  and  _174
REMARK   71  A    between atoms: _174  and  _175
REMARK   72  A    between atoms: _175  and  _176
REMARK   73  A    between atoms: _185  and  _187
REMARK   74  A    between atoms: _187  and  _188
REMARK   75  A    between atoms: _187  and  _190
REMARK   76  A    between atoms: _190  and  _191
REMARK   77  A    between atoms: _193  and  _195
REMARK   78  A    between atoms: _195  and  _196
REMARK   79  A    between atoms: _195  and  _198
REMARK   80  A    between atoms: _201  and  _203
REMARK   81  A    between atoms: _203  and  _204
REMARK   82  A    between atoms: _203  and  _206
REMARK   83  A    between atoms: _206  and  _207
REMARK   84  A    between atoms: _207  and  _208
REMARK   85  A    between atoms: _211  and  _213
REMARK   86  A    between atoms: _213  and  _214
REMARK   87  A    between atoms: _217  and  _219
REMARK   88  A    between atoms: _219  and  _220
REMARK   89  A    between atoms: _219  and  _222
REMARK   90  A    between atoms: _225  and  _227
REMARK   91  A    between atoms: _227  and  _228
REMARK   92  A    between atoms: _227  and  _230
REMARK   93  A    between atoms: _233  and  _235
REMARK   94  A    between atoms: _235  and  _236
REMARK   95  A    between atoms: _235  and  _238
REMARK   96  A    between atoms: _238  and  _239
REMARK   97  A    between atoms: _244  and  _246
REMARK   98  A    between atoms: _246  and  _247
REMARK   99  A    between atoms: _246  and  _249
REMARK  100  A    between atoms: _249  and  _250
REMARK  101  A    between atoms: _253  and  _255
REMARK  102  A    between atoms: _255  and  _256
REMARK  103  A    between atoms: _255  and  _258
REMARK  104  A    between atoms: _258  and  _259
REMARK  105  A    between atoms: _264  and  _265
REMARK  106  A    between atoms: _267  and  _269
REMARK  107  A    between atoms: _269  and  _270
REMARK  108  A    between atoms: _269  and  _272
REMARK  109  A    between atoms: _272  and  _273
REMARK  110  A    between atoms: _276  and  _278
REMARK  111  A    between atoms: _278  and  _279
REMARK  112  A    between atoms: _278  and  _281
REMARK  113  A    between atoms: _281  and  _282
REMARK  114  A    between atoms: _285  and  _287
REMARK  115  A    between atoms: _287  and  _288
REMARK  116  A    between atoms: _287  and  _290
REMARK  117  A    between atoms: _290  and  _291
REMARK  118  A    between atoms: _291  and  _292
REMARK  119  A    between atoms: _294  and  _296
REMARK  120  A    between atoms: _296  and  _297
REMARK  121  A    between atoms: _296  and  _299
REMARK  122  A    between atoms: _302  and  _304
REMARK  123  A    between atoms: _304  and  _305
REMARK  124  A    between atoms: _304  and  _307
REMARK  125  A    between atoms: _307  and  _308
REMARK  126  A    between atoms: _311  and  _313
REMARK  127  A    between atoms: _313  and  _314
REMARK  128  A    between atoms: _313  and  _316
REMARK  129  A    between atoms: _316  and  _317
REMARK  130  A    between atoms: _320  and  _322
REMARK  131  A    between atoms: _322  and  _323
REMARK  132  A    between atoms: _322  and  _325
REMARK  133  A    between atoms: _325  and  _326
REMARK  134  A    between atoms: _328  and  _330
REMARK  135  A    between atoms: _330  and  _331
REMARK  136  A    between atoms: _330  and  _333
REMARK  137  A    between atoms: _333  and  _334
REMARK  138  A    between atoms: _334  and  _335
REMARK  139  A    between atoms: _338  and  _340
REMARK  140  A    between atoms: _340  and  _341
REMARK  141  A    between atoms: _343  and  _345
REMARK  142  A    between atoms: _345  and  _346
REMARK  143  A    between atoms: _348  and  _350
REMARK  144  A    between atoms: _350  and  _351
REMARK  145  A    between atoms: _350  and  _353
REMARK  146  A    between atoms: _353  and  _354
REMARK  147  A    between atoms: _354  and  _355
REMARK  148  A    between atoms: _357  and  _359
REMARK  149  A    between atoms: _359  and  _360
REMARK  150  A    between atoms: _359  and  _362
REMARK  151  A    between atoms: _362  and  _363
REMARK  152  A    between atoms: _366  and  _368
REMARK  153  A    between atoms: _368  and  _369
REMARK  154  A    between atoms: _368  and  _371
REMARK  155  A    between atoms: _371  and  _372
REMARK  156  A    between atoms: _378  and  _380
REMARK  157  A    between atoms: _380  and  _381
REMARK  158  A    between atoms: _380  and  _383
REMARK  159  A    between atoms: _383  and  _384
REMARK  160  A    between atoms: _387  and  _389
REMARK  161  A    between atoms: _389  and  _390
REMARK  162  A    between atoms: _389  and  _392
REMARK  163  A    between atoms: _392  and  _393
REMARK  164  A    between atoms: _396  and  _398
REMARK  165  A    between atoms: _398  and  _399
REMARK  166  A    between atoms: _398  and  _401
REMARK  167  A    between atoms: _401  and  _402
REMARK  168  A    between atoms: _402  and  _403
REMARK  169  A    between atoms: _403  and  _404
REMARK  170  A    between atoms: _414  and  _415
REMARK  171  A    between atoms: _420  and  _422
REMARK  172  A    between atoms: _422  and  _423
REMARK  173  A    between atoms: _422  and  _425
REMARK  174  A    between atoms: _425  and  _426
REMARK  175  A    between atoms: _432  and  _434
REMARK  176  A    between atoms: _434  and  _435
REMARK  177  A    between atoms: _437  and  _439
REMARK  178  A    between atoms: _439  and  _440
REMARK  179  A    between atoms: _439  and  _442
REMARK  180  A    between atoms: _442  and  _443
REMARK  181  A    between atoms: _446  and  _448
REMARK  182  A    between atoms: _448  and  _449
REMARK  183  A    between atoms: _448  and  _451
REMARK  184  A    between atoms: _451  and  _452
REMARK  185  A    between atoms: _458  and  _460
REMARK  186  A    between atoms: _460  and  _461
REMARK  187  A    between atoms: _460  and  _463
REMARK  188  A    between atoms: _463  and  _464
REMARK  189  A    between atoms: _464  and  _465
REMARK  190  A    between atoms: _467  and  _469
REMARK  191  A    between atoms: _469  and  _470
REMARK  192  A    between atoms: _469  and  _472
REMARK  193  A    between atoms: _472  and  _473
REMARK  194  A    between atoms: _473  and  _474
REMARK  195  A    between atoms: _477  and  _479
REMARK  196  A    between atoms: _479  and  _480
REMARK  197  A    between atoms: _479  and  _482
REMARK  198  A    between atoms: _482  and  _483
REMARK  199  A    between atoms: _483  and  _484
REMARK  200  A    between atoms: _484  and  _485
REMARK  201  A    between atoms: _485  and  _486
REMARK  202  A    between atoms: _490  and  _492
REMARK  203  A    between atoms: _492  and  _493
REMARK  204  A    between atoms: _492  and  _495
REMARK  205  A    between atoms: _495  and  _496
REMARK  206  A    between atoms: _502  and  _504
REMARK  207  A    between atoms: _504  and  _505
REMARK  208  A    between atoms: _504  and  _507
REMARK  209  A    between atoms: _510  and  _512
REMARK  210  A    between atoms: _512  and  _513
REMARK  211  A    between atoms: _512  and  _515
REMARK  212  A    between atoms: _515  and  _516
REMARK  213  A    between atoms: _521  and  _523
REMARK  214  A    between atoms: _523  and  _524
REMARK  215  A    between atoms: _523  and  _526
REMARK  216  A    between atoms: _529  and  _531
REMARK  217  A    between atoms: _531  and  _532
REMARK  218  A    between atoms: _531  and  _534
REMARK  219  A    between atoms: _534  and  _535
REMARK  220  A    between atoms: _538  and  _540
REMARK  221  A    between atoms: _540  and  _541
REMARK  222  A    between atoms: _540  and  _543
REMARK  223  A    between atoms: _543  and  _544
REMARK  224  A    between atoms: _547  and  _549
REMARK  225  A    between atoms: _549  and  _550
REMARK  226  A    between atoms: _549  and  _552
REMARK  227  A    between atoms: _552  and  _553
REMARK  228  A    between atoms: _556  and  _558
REMARK  229  A    between atoms: _558  and  _559
REMARK  230  A    between atoms: _558  and  _561
REMARK  231  A    between atoms: _561  and  _562
REMARK  232  A    between atoms: _562  and  _563
REMARK  233  A    between atoms: _565  and  _567
REMARK  234  A    between atoms: _567  and  _568
REMARK  235  A    between atoms: _567  and  _570
REMARK  236  A    between atoms: _570  and  _571
REMARK  237  A    between atoms: _573  and  _575
REMARK  238  A    between atoms: _575  and  _576
REMARK  239  A    between atoms: _575  and  _578
REMARK  240  A    between atoms: _578  and  _579
REMARK  241  A    between atoms: _582  and  _584
REMARK  242  A    between atoms: _584  and  _585
REMARK  243  A    between atoms: _584  and  _587
REMARK  244  A    between atoms: _587  and  _588
REMARK  245  A    between atoms: _593  and  _595
REMARK  246  A    between atoms: _595  and  _596
REMARK  247  A    between atoms: _595  and  _598
REMARK  248  A    between atoms: _598  and  _599
REMARK  249  A    between atoms: _602  and  _604
REMARK  250  A    between atoms: _604  and  _605
REMARK  251  A    between atoms: _604  and  _607
REMARK  252  A    between atoms: _607  and  _608
REMARK  253  A    between atoms: _611  and  _613
REMARK  254  A    between atoms: _613  and  _614
REMARK  255  A    between atoms: _613  and  _616
REMARK  256  A    between atoms: _616  and  _617
REMARK  257  A    between atoms: _617  and  _618
REMARK  258  A    between atoms: _623  and  _625
REMARK  259  A    between atoms: _625  and  _626
REMARK  260  A    between atoms: _625  and  _628
REMARK  261  A    between atoms: _628  and  _629
REMARK  262  A    between atoms: _632  and  _634
REMARK  263  A    between atoms: _634  and  _635
REMARK  264  A    between atoms: _634  and  _637
REMARK  265  A    between atoms: _637  and  _638
REMARK  266  A    between atoms: _643  and  _644
REMARK                            x       y       z     vdW  Elec       q    Type
REMARK                         _______ _______ _______ _____ _____    ______ ____
ROOT
ATOM      1  CA  ILE A   1       1.409  -7.783  -1.001  0.00  0.00    +0.133 C 
ENDROOT
BRANCH   1   2
ATOM      2  N   ILE A   1       0.967  -6.404  -1.194  0.00  0.00    -0.239 NA
ATOM      3  H   ILE A   1       1.202  -5.694  -0.471  0.00  0.00    +0.142 HD
ENDBRANCH   1   2
BRANCH   1   4
ATOM      4  C   ILE A   1       0.548  -8.399   0.098  0.00  0.00    +0.224 C 
ATOM      5  O   ILE A   1       0.705  -8.073   1.272  0.00  0.00    -0.287 OA
ENDBRANCH   1   4
BRANCH   1   6
ATOM      6  CB  ILE A   1       2.881  -7.855  -0.559  0.00  0.00    +0.023 C 
ATOM      7  CG2 ILE A   1       3.235  -9.284  -0.163  0.00  0.00    +0.002 C 
BRANCH   6   8
ATOM      8  CG1 ILE A   1       3.779  -7.355  -1.694  0.00  0.00    +0.002 C 
ATOM      9  CD1 ILE A   1       5.252  -7.389  -1.369  0.00  0.00    +0.000 C 
ENDBRANCH   6   8
ENDBRANCH   1   6
TORSDOF 4
REMARK  Name = ../refined-set-2016/1fm9/1fm9_pocket.pdb
REMARK  266 active torsions:
REMARK  status: ('A' for Active; 'I' for Inactive)
REMARK    1  A    between atoms: _1  and  _3
REMARK    2  A    between atoms: _3  and  _4
REMARK    3  A    between atoms: _3  and  _6
REMARK    4  A    between atoms: _6  and  _7
REMARK    5  A    between atoms: _10  and  _12
REMARK    6  A    between atoms: _12  and  _13
REMARK    7  A    between atoms: _12  and  _15
REMARK    8  A    between atoms: _15  and  _16
REMARK    9  A    between atoms: _19  and  _21
REMARK   10  A    between atoms: _21  and  _22
REMARK   11  A    between atoms: _24  and  _26
REMARK   12  A    between atoms: _26  and  _27
REMARK   13  A    between atoms: _26  and  _29
REMARK   14  A    between atoms: _29  and  _30
REMARK   15  A    between atoms: _30  and  _31
REMARK   16  A    between atoms: _34  and  _36
REMARK   17  A    between atoms: _36  and  _37
REMARK   18  A    between atoms: _36  and  _39
REMARK   19  A    between atoms: _39  and  _40
REMARK   20  A    between atoms: _44  and  _45
REMARK   21  A    between atoms: _50  and  _52
REMARK   22  A    between atoms: _52  and  _53
REMARK   23  A    between atoms: _52  and  _55
REMARK   24  A    between atoms: _55  and  _56
REMARK   25  A    between atoms: _59  and  _61
REMARK   26  A    between atoms: _61  and  _62
REMARK   27  A    between atoms: _61  and  _64
REMARK   28  A    between atoms: _67  and  _69
REMARK   29  A    between atoms: _69  and  _70
REMARK   30  A    between atoms: _73  and  _75
REMARK   31  A    between atoms: _75  and  _76
REMARK   32  A    between atoms: _75  and  _78
REMARK   33  A    between atoms: _78  and  _79
REMARK   34  A    between atoms: _82  and  _84
REMARK   35  A    between atoms: _84  and  _85
REMARK   36  A    between atoms: _84  and  _87
REMARK   37  A    between atoms: _87  and  _88
REMARK   38  A    between atoms: _88  and  _89
REMARK   39  A    between atoms: _89  and  _90
REMARK   40  A    between atoms: _99  and  _101
REMARK   41  A    between atoms: _101  and  _102
REMARK   42  A    between atoms: _101  and  _104
REMARK   43  A    between atoms: _104  and  _105
REMARK   44  A    between atoms: _108  and  _110
REMARK   45  A    between atoms: _110  and  _111
REMARK   46  A    between atoms: _110  and  _113
REMARK   47  A    between atoms: _113  and  _114
REMARK   48  A    between atoms: _120  and  _122
REMARK   49  A    between atoms: _122  and  _123
REMARK   50  A    between atoms: _122  and  _125
REMARK   51  A    between atoms: _125  and  _126
REMARK   52  A    between atoms: _126  and  _127
REMARK   53  A    between atoms: _132  and  _134
REMARK   54  A    between atoms: _134  and  _135
REMARK   55  A    between atoms: _137  and  _139
REMARK   56  A    between atoms: _139  and  _140
REMARK   57  A    between atoms: _139  and  _142
REMARK   58  A    between atoms: _144  and  _146
REMARK   59  A    between atoms: _146  and  _147
REMARK   60  A    between atoms: _146  and  _149
REMARK   61  A    between atoms: _149  and  _150
REMARK   62  A    between atoms: _150  and  _151
REMARK   63  A    between atoms: _156  and  _158
REMARK   64  A    between atoms: _158  and  _159
REMARK   65  A    between atoms: _158  and  _161
REMARK   66  A    between atoms: _161  and  _162
REMARK   67  A    between atoms: _168  and  _170
REMARK   68  A    between atoms: _170  and  _171
REMARK   69  A    between atoms: _170  and  _173
REMARK   70  A    between atoms: _173  and  _174
REMARK   71  A    between atoms: _174  and  _175
REMARK   72  A    between atoms: _175  and  _176
REMARK   73  A    between atoms: _185  and  _187
REMARK   74  A    between atoms: _187  and  _188
REMARK   75  A    between atoms: _187  and  _190
REMARK   76  A    between atoms: _190  and  _191
REMARK   77  A    between atoms: _193  and  _195
REMARK   78  A    between atoms: _195  and  _196
REMARK   79  A    between atoms: _195  and  _198
REMARK   80  A    between atoms: _201  and  _203
REMARK   81  A    between atoms: _203  and  _204
REMARK   82  A    between atoms: _203  and  _206
REMARK   83  A    between atoms: _206  and  _207
REMARK   84  A    between atoms: _207  and  _208
REMARK   85  A    between atoms: _211  and  _213
REMARK   86  A    between atoms: _213  and  _214
REMARK   87  A    between atoms: _217  and  _219
REMARK   88  A    between atoms: _219  and  _220
REMARK   89  A    between atoms: _219  and  _222
REMARK   90  A    between atoms: _225  and  _227
REMARK   91  A    between atoms: _227  and  _228
REMARK   92  A    between atoms: _227  and  _230
REMARK   93  A    between atoms: _233  and  _235
REMARK   94  A    between atoms: _235  and  _236
REMARK   95  A    between atoms: _235  and  _238
REMARK   96  A    between atoms: _238  and  _239
REMARK   97  A    between atoms: _244  and  _246
REMARK   98  A    between atoms: _246  and  _247
REMARK   99  A    between atoms: _246  and  _249
REMARK  100  A    between atoms: _249  and  _250
REMARK  101  A    between atoms: _253  and  _255
REMARK  102  A    between atoms: _255  and  _256
REMARK  103  A    between atoms: _255  and  _258
REMARK  104  A    between atoms: _258  and  _259
REMARK  105  A    between atoms: _264  and  _265
REMARK  106  A    between atoms: _267  and  _269
REMARK  107  A    between atoms: _269  and  _270
REMARK  108  A    between atoms: _269  and  _272
REMARK  109  A    between atoms: _272  and  _273
REMARK  110  A    between atoms: _276  and  _278
REMARK  111  A    between atoms: _278  and  _279
REMARK  112  A    between atoms: _278  and  _281
REMARK  113  A    between atoms: _281  and  _282
REMARK  114  A    between atoms: _285  and  _287
REMARK  115  A    between atoms: _287  and  _288
REMARK  116  A    between atoms: _287  and  _290
REMARK  117  A    between atoms: _290  and  _291
REMARK  118  A    between atoms: _291  and  _292
REMARK  119  A    between atoms: _294  and  _296
REMARK  120  A    between atoms: _296  and  _297
REMARK  121  A    between atoms: _296  and  _299
REMARK  122  A    between atoms: _302  and  _304
REMARK  123  A    between atoms: _304  and  _305
REMARK  124  A    between atoms: _304  and  _307
REMARK  125  A    between atoms: _307  and  _308
REMARK  126  A    between atoms: _311  and  _313
REMARK  127  A    between atoms: _313  and  _314
REMARK  128  A    between atoms: _313  and  _316
REMARK  129  A    between atoms: _316  and  _317
REMARK  130  A    between atoms: _320  and  _322
REMARK  131  A    between atoms: _322  and  _323
REMARK  132  A    between atoms: _322  and  _325
REMARK  133  A    between atoms: _325  and  _326
REMARK  134  A    between atoms: _328  and  _330
REMARK  135  A    between atoms: _330  and  _331
REMARK  136  A    between atoms: _330  and  _333
REMARK  137  A    between atoms: _333  and  _334
REMARK  138  A    between atoms: _334  and  _335
REMARK  139  A    between atoms: _338  and  _340
REMARK  140  A    between atoms: _340  and  _341
REMARK  141  A    between atoms: _343  and  _345
REMARK  142  A    between atoms: _345  and  _346
REMARK  143  A    between atoms: _348  and  _350
REMARK  144  A    between atoms: _350  and  _351
REMARK  145  A    between atoms: _350  and  _353
REMARK  146  A    between atoms: _353  and  _354
REMARK  147  A    between atoms: _354  and  _355
REMARK  148  A    between atoms: _357  and  _359
REMARK  149  A    between atoms: _359  and  _360
REMARK  150  A    between atoms: _359  and  _362
REMARK  151  A    between atoms: _362  and  _363
REMARK  152  A    between atoms: _366  and  _368
REMARK  153  A    between atoms: _368  and  _369
REMARK  154  A    between atoms: _368  and  _371
REMARK  155  A    between atoms: _371  and  _372
REMARK  156  A    between atoms: _378  and  _380
REMARK  157  A    between atoms: _380  and  _381
REMARK  158  A    between atoms: _380  and  _383
REMARK  159  A    between atoms: _383  and  _384
REMARK  160  A    between atoms: _387  and  _389
REMARK  161  A    between atoms: _389  and  _390
REMARK  162  A    between atoms: _389  and  _392
REMARK  163  A    between atoms: _392  and  _393
REMARK  164  A    between atoms: _396  and  _398
REMARK  165  A    between atoms: _398  and  _399
REMARK  166  A    between atoms: _398  and  _401
REMARK  167  A    between atoms: _401  and  _402
REMARK  168  A    between atoms: _402  and  _403
REMARK  169  A    between atoms: _403  and  _404
REMARK  170  A    between atoms: _414  and  _415
REMARK  171  A    between atoms: _420  and  _422
REMARK  172  A    between atoms: _422  and  _423
REMARK  173  A    between atoms: _422  and  _425
REMARK  174  A    between atoms: _425  and  _426
REMARK  175  A    between atoms: _432  and  _434
REMARK  176  A    between atoms: _434  and  _435
REMARK  177  A    between atoms: _437  and  _439
REMARK  178  A    between atoms: _439  and  _440
REMARK  179  A    between atoms: _439  and  _442
REMARK  180  A    between atoms: _442  and  _443
REMARK  181  A    between atoms: _446  and  _448
REMARK  182  A    between atoms: _448  and  _449
REMARK  183  A    between atoms: _448  and  _451
REMARK  184  A    between atoms: _451  and  _452
REMARK  185  A    between atoms: _458  and  _460
REMARK  186  A    between atoms: _460  and  _461
REMARK  187  A    between atoms: _460  and  _463
REMARK  188  A    between atoms: _463  and  _464
REMARK  189  A    between atoms: _464  and  _465
REMARK  190  A    between atoms: _467  and  _469
REMARK  191  A    between atoms: _469  and  _470
REMARK  192  A    between atoms: _469  and  _472
REMARK  193  A    between atoms: _472  and  _473
REMARK  194  A    between atoms: _473  and  _474
REMARK  195  A    between atoms: _477  and  _479
REMARK  196  A    between atoms: _479  and  _480
REMARK  197  A    between atoms: _479  and  _482
REMARK  198  A    between atoms: _482  and  _483
REMARK  199  A    between atoms: _483  and  _484
REMARK  200  A    between atoms: _484  and  _485
REMARK  201  A    between atoms: _485  and  _486
REMARK  202  A    between atoms: _490  and  _492
REMARK  203  A    between atoms: _492  and  _493
REMARK  204  A    between atoms: _492  and  _495
REMARK  205  A    between atoms: _495  and  _496
REMARK  206  A    between atoms: _502  and  _504
REMARK  207  A    between atoms: _504  and  _505
REMARK  208  A    between atoms: _504  and  _507
REMARK  209  A    between atoms: _510  and  _512
REMARK  210  A    between atoms: _512  and  _513
REMARK  211  A    between atoms: _512  and  _515
REMARK  212  A    between atoms: _515  and  _516
REMARK  213  A    between atoms: _521  and  _523
REMARK  214  A    between atoms: _523  and  _524
REMARK  215  A    between atoms: _523  and  _526
REMARK  216  A    between atoms: _529  and  _531
REMARK  217  A    between atoms: _531  and  _532
REMARK  218  A    between atoms: _531  and  _534
REMARK  219  A    between atoms: _534  and  _535
REMARK  220  A    between atoms: _538  and  _540
REMARK  221  A    between atoms: _540  and  _541
REMARK  222  A    between atoms: _540  and  _543
REMARK  223  A    between atoms: _543  and  _544
REMARK  224  A    between atoms: _547  and  _549
REMARK  225  A    between atoms: _549  and  _550
REMARK  226  A    between atoms: _549  and  _552
REMARK  227  A    between atoms: _552  and  _553
REMARK  228  A    between atoms: _556  and  _558
REMARK  229  A    between atoms: _558  and  _559
REMARK  230  A    between atoms: _558  and  _561
REMARK  231  A    between atoms: _561  and  _562
REMARK  232  A    between atoms: _562  and  _563
REMARK  233  A    between atoms: _565  and  _567
REMARK  234  A    between atoms: _567  and  _568
REMARK  235  A    between atoms: _567  and  _570
REMARK  236  A    between atoms: _570  and  _571
REMARK  237  A    between atoms: _573  and  _575
REMARK  238  A    between atoms: _575  and  _576
REMARK  239  A    between atoms: _575  and  _578
REMARK  240  A    between atoms: _578  and  _579
REMARK  241  A    between atoms: _582  and  _584
REMARK  242  A    between atoms: _584  and  _585
REMARK  243  A    between atoms: _584  and  _587
REMARK  244  A    between atoms: _587  and  _588
REMARK  245  A    between atoms: _593  and  _595
REMARK  246  A    between atoms: _595  and  _596
REMARK  247  A    between atoms: _595  and  _598
REMARK  248  A    between atoms: _598  and  _599
REMARK  249  A    between atoms: _602  and  _604
REMARK  250  A    between atoms: _604  and  _605
REMARK  251  A    between atoms: _604  and  _607
REMARK  252  A    between atoms: _607  and  _608
REMARK  253  A    between atoms: _611  and  _613
REMARK  254  A    between atoms: _613  and  _614
REMARK  255  A    between atoms: _613  and  _616
REMARK  256  A    between atoms: _616  and  _617
REMARK  257  A    between atoms: _617  and  _618
REMARK  258  A    between atoms: _623  and  _625
REMARK  259  A    between atoms: _625  and  _626
REMARK  260  A    between atoms: _625  and  _628
REMARK  261  A    between atoms: _628  and  _629
REMARK  262  A    between atoms: _632  and  _634
REMARK  263  A    between atoms: _634  and  _635
REMARK  264  A    between atoms: _634  and  _637
REMARK  265  A    between atoms: _637  and  _638
REMARK  266  A    between atoms: _643  and  _644
REMARK                            x       y       z     vdW  Elec       q    Type
REMARK                         _______ _______ _______ _____ _____    ______ ____
ROOT
ATOM      1  CA  LEU A   1       5.137 -10.907  -2.552  0.00  0.00    +0.133 C 
ENDROOT
BRANCH   1   2
ATOM      2  N   LEU A   1       3.830 -11.292  -3.066  0.00  0.00    -0.239 NA
ATOM      3  H   LEU A   1       3.371 -12.156  -2.714  0.00  0.00    +0.142 HD
ENDBRANCH   1   2
BRANCH   1   4
ATOM      4  C   LEU A   1       6.175 -11.126  -3.642  0.00  0.00    +0.224 C 
ATOM      5  O   LEU A   1       7.142 -10.374  -3.752  0.00  0.00    -0.287 OA
ENDBRANCH   1   4
BRANCH   1   6
ATOM      6  CB  LEU A   1       5.502 -11.735  -1.317  0.00  0.00    +0.025 C 
BRANCH   6   7
ATOM      7  CG  LEU A   1       6.911 -11.519  -0.749  0.00  0.00    +0.002 C 
ATOM      8  CD2 LEU A   1       7.107 -12.389   0.479  0.00  0.00    +0.000 C 
ATOM      9  CD1 LEU A   1       7.114 -10.054  -0.399  0.00  0.00    +0.000 C 
ENDBRANCH   6   7
ENDBRANCH   1   6
TORSDOF 4
REMARK  Name = ../refined-set-2016/1fm9/1fm9_pocket.pdb
REMARK  266 active torsions:
REMARK  status: ('A' for Active; 'I' for Inactive)
REMARK    1  A    between atoms: _1  and  _3
REMARK    2  A    between atoms: _3  and  _4
REMARK    3  A    between atoms: _3  and  _6
REMARK    4  A    between atoms: _6  and  _7
REMARK    5  A    between atoms: _10  and  _12
REMARK    6  A    between atoms: _12  and  _13
REMARK    7  A    between atoms: _12  and  _15
REMARK    8  A    between atoms: _15  and  _16
REMARK    9  A    between atoms: _19  and  _21
REMARK   10  A    between atoms: _21  and  _22
REMARK   11  A    between atoms: _24  and  _26
REMARK   12  A    between atoms: _26  and  _27
REMARK   13  A    between atoms: _26  and  _29
REMARK   14  A    between atoms: _29  and  _30
REMARK   15  A    between atoms: _30  and  _31
REMARK   16  A    between atoms: _34  and  _36
REMARK   17  A    between atoms: _36  and  _37
REMARK   18  A    between atoms: _36  and  _39
REMARK   19  A    between atoms: _39  and  _40
REMARK   20  A    between atoms: _44  and  _45
REMARK   21  A    between atoms: _50  and  _52
REMARK   22  A    between atoms: _52  and  _53
REMARK   23  A    between atoms: _52  and  _55
REMARK   24  A    between atoms: _55  and  _56
REMARK   25  A    between atoms: _59  and  _61
REMARK   26  A    between atoms: _61  and  _62
REMARK   27  A    between atoms: _61  and  _64
REMARK   28  A    between atoms: _67  and  _69
REMARK   29  A    between atoms: _69  and  _70
REMARK   30  A    between atoms: _73  and  _75
REMARK   31  A    between atoms: _75  and  _76
REMARK   32  A    between atoms: _75  and  _78
REMARK   33  A    between atoms: _78  and  _79
REMARK   34  A    between atoms: _82  and  _84
REMARK   35  A    between atoms: _84  and  _85
REMARK   36  A    between atoms: _84  and  _87
REMARK   37  A    between atoms: _87  and  _88
REMARK   38  A    between atoms: _88  and  _89
REMARK   39  A    between atoms: _89  and  _90
REMARK   40  A    between atoms: _99  and  _101
REMARK   41  A    between atoms: _101  and  _102
REMARK   42  A    between atoms: _101  and  _104
REMARK   43  A    between atoms: _104  and  _105
REMARK   44  A    between atoms: _108  and  _110
REMARK   45  A    between atoms: _110  and  _111
REMARK   46  A    between atoms: _110  and  _113
REMARK   47  A    between atoms: _113  and  _114
REMARK   48  A    between atoms: _120  and  _122
REMARK   49  A    between atoms: _122  and  _123
REMARK   50  A    between atoms: _122  and  _125
REMARK   51  A    between atoms: _125  and  _126
REMARK   52  A    between atoms: _126  and  _127
REMARK   53  A    between atoms: _132  and  _134
REMARK   54  A    between atoms: _134  and  _135
REMARK   55  A    between atoms: _137  and  _139
REMARK   56  A    between atoms: _139  and  _140
REMARK   57  A    between atoms: _139  and  _142
REMARK   58  A    between atoms: _144  and  _146
REMARK   59  A    between atoms: _146  and  _147
REMARK   60  A    between atoms: _146  and  _149
REMARK   61  A    between atoms: _149  and  _150
REMARK   62  A    between atoms: _150  and  _151
REMARK   63  A    between atoms: _156  and  _158
REMARK   64  A    between atoms: _158  and  _159
REMARK   65  A    between atoms: _158  and  _161
REMARK   66  A    between atoms: _161  and  _162
REMARK   67  A    between atoms: _168  and  _170
REMARK   68  A    between atoms: _170  and  _171
REMARK   69  A    between atoms: _170  and  _173
REMARK   70  A    between atoms: _173  and  _174
REMARK   71  A    between atoms: _174  and  _175
REMARK   72  A    between atoms: _175  and  _176
REMARK   73  A    between atoms: _185  and  _187
REMARK   74  A    between atoms: _187  and  _188
REMARK   75  A    between atoms: _187  and  _190
REMARK   76  A    between atoms: _190  and  _191
REMARK   77  A    between atoms: _193  and  _195
REMARK   78  A    between atoms: _195  and  _196
REMARK   79  A    between atoms: _195  and  _198
REMARK   80  A    between atoms: _201  and  _203
REMARK   81  A    between atoms: _203  and  _204
REMARK   82  A    between atoms: _203  and  _206
REMARK   83  A    between atoms: _206  and  _207
REMARK   84  A    between atoms: _207  and  _208
REMARK   85  A    between atoms: _211  and  _213
REMARK   86  A    between atoms: _213  and  _214
REMARK   87  A    between atoms: _217  and  _219
REMARK   88  A    between atoms: _219  and  _220
REMARK   89  A    between atoms: _219  and  _222
REMARK   90  A    between atoms: _225  and  _227
REMARK   91  A    between atoms: _227  and  _228
REMARK   92  A    between atoms: _227  and  _230
REMARK   93  A    between atoms: _233  and  _235
REMARK   94  A    between atoms: _235  and  _236
REMARK   95  A    between atoms: _235  and  _238
REMARK   96  A    between atoms: _238  and  _239
REMARK   97  A    between atoms: _244  and  _246
REMARK   98  A    between atoms: _246  and  _247
REMARK   99  A    between atoms: _246  and  _249
REMARK  100  A    between atoms: _249  and  _250
REMARK  101  A    between atoms: _253  and  _255
REMARK  102  A    between atoms: _255  and  _256
REMARK  103  A    between atoms: _255  and  _258
REMARK  104  A    between atoms: _258  and  _259
REMARK  105  A    between atoms: _264  and  _265
REMARK  106  A    between atoms: _267  and  _269
REMARK  107  A    between atoms: _269  and  _270
REMARK  108  A    between atoms: _269  and  _272
REMARK  109  A    between atoms: _272  and  _273
REMARK  110  A    between atoms: _276  and  _278
REMARK  111  A    between atoms: _278  and  _279
REMARK  112  A    between atoms: _278  and  _281
REMARK  113  A    between atoms: _281  and  _282
REMARK  114  A    between atoms: _285  and  _287
REMARK  115  A    between atoms: _287  and  _288
REMARK  116  A    between atoms: _287  and  _290
REMARK  117  A    between atoms: _290  and  _291
REMARK  118  A    between atoms: _291  and  _292
REMARK  119  A    between atoms: _294  and  _296
REMARK  120  A    between atoms: _296  and  _297
REMARK  121  A    between atoms: _296  and  _299
REMARK  122  A    between atoms: _302  and  _304
REMARK  123  A    between atoms: _304  and  _305
REMARK  124  A    between atoms: _304  and  _307
REMARK  125  A    between atoms: _307  and  _308
REMARK  126  A    between atoms: _311  and  _313
REMARK  127  A    between atoms: _313  and  _314
REMARK  128  A    between atoms: _313  and  _316
REMARK  129  A    between atoms: _316  and  _317
REMARK  130  A    between atoms: _320  and  _322
REMARK  131  A    between atoms: _322  and  _323
REMARK  132  A    between atoms: _322  and  _325
REMARK  133  A    between atoms: _325  and  _326
REMARK  134  A    between atoms: _328  and  _330
REMARK  135  A    between atoms: _330  and  _331
REMARK  136  A    between atoms: _330  and  _333
REMARK  137  A    between atoms: _333  and  _334
REMARK  138  A    between atoms: _334  and  _335
REMARK  139  A    between atoms: _338  and  _340
REMARK  140  A    between atoms: _340  and  _341
REMARK  141  A    between atoms: _343  and  _345
REMARK  142  A    between atoms: _345  and  _346
REMARK  143  A    between atoms: _348  and  _350
REMARK  144  A    between atoms: _350  and  _351
REMARK  145  A    between atoms: _350  and  _353
REMARK  146  A    between atoms: _353  and  _354
REMARK  147  A    between atoms: _354  and  _355
REMARK  148  A    between atoms: _357  and  _359
REMARK  149  A    between atoms: _359  and  _360
REMARK  150  A    between atoms: _359  and  _362
REMARK  151  A    between atoms: _362  and  _363
REMARK  152  A    between atoms: _366  and  _368
REMARK  153  A    between atoms: _368  and  _369
REMARK  154  A    between atoms: _368  and  _371
REMARK  155  A    between atoms: _371  and  _372
REMARK  156  A    between atoms: _378  and  _380
REMARK  157  A    between atoms: _380  and  _381
REMARK  158  A    between atoms: _380  and  _383
REMARK  159  A    between atoms: _383  and  _384
REMARK  160  A    between atoms: _387  and  _389
REMARK  161  A    between atoms: _389  and  _390
REMARK  162  A    between atoms: _389  and  _392
REMARK  163  A    between atoms: _392  and  _393
REMARK  164  A    between atoms: _396  and  _398
REMARK  165  A    between atoms: _398  and  _399
REMARK  166  A    between atoms: _398  and  _401
REMARK  167  A    between atoms: _401  and  _402
REMARK  168  A    between atoms: _402  and  _403
REMARK  169  A    between atoms: _403  and  _404
REMARK  170  A    between atoms: _414  and  _415
REMARK  171  A    between atoms: _420  and  _422
REMARK  172  A    between atoms: _422  and  _423
REMARK  173  A    between atoms: _422  and  _425
REMARK  174  A    between atoms: _425  and  _426
REMARK  175  A    between atoms: _432  and  _434
REMARK  176  A    between atoms: _434  and  _435
REMARK  177  A    between atoms: _437  and  _439
REMARK  178  A    between atoms: _439  and  _440
REMARK  179  A    between atoms: _439  and  _442
REMARK  180  A    between atoms: _442  and  _443
REMARK  181  A    between atoms: _446  and  _448
REMARK  182  A    between atoms: _448  and  _449
REMARK  183  A    between atoms: _448  and  _451
REMARK  184  A    between atoms: _451  and  _452
REMARK  185  A    between atoms: _458  and  _460
REMARK  186  A    between atoms: _460  and  _461
REMARK  187  A    between atoms: _460  and  _463
REMARK  188  A    between atoms: _463  and  _464
REMARK  189  A    between atoms: _464  and  _465
REMARK  190  A    between atoms: _467  and  _469
REMARK  191  A    between atoms: _469  and  _470
REMARK  192  A    between atoms: _469  and  _472
REMARK  193  A    between atoms: _472  and  _473
REMARK  194  A    between atoms: _473  and  _474
REMARK  195  A    between atoms: _477  and  _479
REMARK  196  A    between atoms: _479  and  _480
REMARK  197  A    between atoms: _479  and  _482
REMARK  198  A    between atoms: _482  and  _483
REMARK  199  A    between atoms: _483  and  _484
REMARK  200  A    between atoms: _484  and  _485
REMARK  201  A    between atoms: _485  and  _486
REMARK  202  A    between atoms: _490  and  _492
REMARK  203  A    between atoms: _492  and  _493
REMARK  204  A    between atoms: _492  and  _495
REMARK  205  A    between atoms: _495  and  _496
REMARK  206  A    between atoms: _502  and  _504
REMARK  207  A    between atoms: _504  and  _505
REMARK  208  A    between atoms: _504  and  _507
REMARK  209  A    between atoms: _510  and  _512
REMARK  210  A    between atoms: _512  and  _513
REMARK  211  A    between atoms: _512  and  _515
REMARK  212  A    between atoms: _515  and  _516
REMARK  213  A    between atoms: _521  and  _523
REMARK  214  A    between atoms: _523  and  _524
REMARK  215  A    between atoms: _523  and  _526
REMARK  216  A    between atoms: _529  and  _531
REMARK  217  A    between atoms: _531  and  _532
REMARK  218  A    between atoms: _531  and  _534
REMARK  219  A    between atoms: _534  and  _535
REMARK  220  A    between atoms: _538  and  _540
REMARK  221  A    between atoms: _540  and  _541
REMARK  222  A    between atoms: _540  and  _543
REMARK  223  A    between atoms: _543  and  _544
REMARK  224  A    between atoms: _547  and  _549
REMARK  225  A    between atoms: _549  and  _550
REMARK  226  A    between atoms: _549  and  _552
REMARK  227  A    between atoms: _552  and  _553
REMARK  228  A    between atoms: _556  and  _558
REMARK  229  A    between atoms: _558  and  _559
REMARK  230  A    between atoms: _558  and  _561
REMARK  231  A    between atoms: _561  and  _562
REMARK  232  A    between atoms: _562  and  _563
REMARK  233  A    between atoms: _565  and  _567
REMARK  234  A    between atoms: _567  and  _568
REMARK  235  A    between atoms: _567  and  _570
REMARK  236  A    between atoms: _570  and  _571
REMARK  237  A    between atoms: _573  and  _575
REMARK  238  A    between atoms: _575  and  _576
REMARK  239  A    between atoms: _575  and  _578
REMARK  240  A    between atoms: _578  and  _579
REMARK  241  A    between atoms: _582  and  _584
REMARK  242  A    between atoms: _584  and  _585
REMARK  243  A    between atoms: _584  and  _587
REMARK  244  A    between atoms: _587  and  _588
REMARK  245  A    between atoms: _593  and  _595
REMARK  246  A    between atoms: _595  and  _596
REMARK  247  A    between atoms: _595  and  _598
REMARK  248  A    between atoms: _598  and  _599
REMARK  249  A    between atoms: _602  and  _604
REMARK  250  A    between atoms: _604  and  _605
REMARK  251  A    between atoms: _604  and  _607
REMARK  252  A    between atoms: _607  and  _608
REMARK  253  A    between atoms: _611  and  _613
REMARK  254  A    between atoms: _613  and  _614
REMARK  255  A    between atoms: _613  and  _616
REMARK  256  A    between atoms: _616  and  _617
REMARK  257  A    between atoms: _617  and  _618
REMARK  258  A    between atoms: _623  and  _625
REMARK  259  A    between atoms: _625  and  _626
REMARK  260  A    between atoms: _625  and  _628
REMARK  261  A    between atoms: _628  and  _629
REMARK  262  A    between atoms: _632  and  _634
REMARK  263  A    between atoms: _634  and  _635
REMARK  264  A    between atoms: _634  and  _637
REMARK  265  A    between atoms: _637  and  _638
REMARK  266  A    between atoms: _643  and  _644
REMARK                            x       y       z     vdW  Elec       q    Type
REMARK                         _______ _______ _______ _____ _____    ______ ____
ROOT
ATOM      1  CA  GLU A   2      10.139  -8.468  -5.564  0.00  0.00    +0.137 C 
ENDROOT
BRANCH   1   3
ATOM      2  C   GLY A   1       8.044  -7.233  -5.780  0.00  0.00    +0.240 C 
ATOM      3  N   GLU A   2       8.684  -8.381  -5.580  0.00  0.00    -0.298 N 
ATOM      4  H   GLU A   2       8.127  -9.247  -5.430  0.00  0.00    +0.150 HD
ATOM      5  O   GLY A   1       8.624  -6.162  -5.967  0.00  0.00    -0.274 OA
BRANCH   2   6
ATOM      6  CA  GLY A   1       6.529  -7.314  -5.774  0.00  0.00    +0.169 C 
BRANCH   6   7
ATOM      7  N   GLY A   1       6.127  -8.591  -6.329  0.00  0.00    -0.236 NA
ATOM      8  H   GLY A   1       6.183  -9.447  -5.741  0.00  0.00    +0.142 HD
ENDBRANCH   6   7
ENDBRANCH   2   6
ENDBRANCH   1   3
BRANCH   1   9
ATOM      9  C   GLU A   2      10.670  -8.713  -6.974  0.00  0.00    +0.227 C 
ATOM     10  O   GLU A   2      11.671  -8.120  -7.378  0.00  0.00    -0.286 OA
ENDBRANCH   1   9
BRANCH   1  11
ATOM     11  CB  GLU A   2      10.588  -9.596  -4.631  0.00  0.00    +0.039 C 
BRANCH  11  12
ATOM     12  CG  GLU A   2      12.095  -9.692  -4.447  0.00  0.00    +0.116 C 
BRANCH  12  13
ATOM     13  CD  GLU A   2      12.494 -10.802  -3.495  0.00  0.00    +0.365 C 
ATOM     14  OE2 GLU A   2      13.092 -10.499  -2.439  0.00  0.00    -0.246 OA
ATOM     15  OE1 GLU A   2      12.207 -11.978  -3.801  0.00  0.00    -0.246 OA
ENDBRANCH  12  13
ENDBRANCH  11  12
ENDBRANCH   1  11
TORSDOF 7
REMARK  Name = ../refined-set-2016/1fm9/1fm9_pocket.pdb
REMARK  266 active torsions:
REMARK  status: ('A' for Active; 'I' for Inactive)
REMARK    1  A    between atoms: _1  and  _3
REMARK    2  A    between atoms: _3  and  _4
REMARK    3  A    between atoms: _3  and  _6
REMARK    4  A    between atoms: _6  and  _7
REMARK    5  A    between atoms: _10  and  _12
REMARK    6  A    between atoms: _12  and  _13
REMARK    7  A    between atoms: _12  and  _15
REMARK    8  A    between atoms: _15  and  _16
REMARK    9  A    between atoms: _19  and  _21
REMARK   10  A    between atoms: _21  and  _22
REMARK   11  A    between atoms: _24  and  _26
REMARK   12  A    between atoms: _26  and  _27
REMARK   13  A    between atoms: _26  and  _29
REMARK   14  A    between atoms: _29  and  _30
REMARK   15  A    between atoms: _30  and  _31
REMARK   16  A    between atoms: _34  and  _36
REMARK   17  A    between atoms: _36  and  _37
REMARK   18  A    between atoms: _36  and  _39
REMARK   19  A    between atoms: _39  and  _40
REMARK   20  A    between atoms: _44  and  _45
REMARK   21  A    between atoms: _50  and  _52
REMARK   22  A    between atoms: _52  and  _53
REMARK   23  A    between atoms: _52  and  _55
REMARK   24  A    between atoms: _55  and  _56
REMARK   25  A    between atoms: _59  and  _61
REMARK   26  A    between atoms: _61  and  _62
REMARK   27  A    between atoms: _61  and  _64
REMARK   28  A    between atoms: _67  and  _69
REMARK   29  A    between atoms: _69  and  _70
REMARK   30  A    between atoms: _73  and  _75
REMARK   31  A    between atoms: _75  and  _76
REMARK   32  A    between atoms: _75  and  _78
REMARK   33  A    between atoms: _78  and  _79
REMARK   34  A    between atoms: _82  and  _84
REMARK   35  A    between atoms: _84  and  _85
REMARK   36  A    between atoms: _84  and  _87
REMARK   37  A    between atoms: _87  and  _88
REMARK   38  A    between atoms: _88  and  _89
REMARK   39  A    between atoms: _89  and  _90
REMARK   40  A    between atoms: _99  and  _101
REMARK   41  A    between atoms: _101  and  _102
REMARK   42  A    between atoms: _101  and  _104
REMARK   43  A    between atoms: _104  and  _105
REMARK   44  A    between atoms: _108  and  _110
REMARK   45  A    between atoms: _110  and  _111
REMARK   46  A    between atoms: _110  and  _113
REMARK   47  A    between atoms: _113  and  _114
REMARK   48  A    between atoms: _120  and  _122
REMARK   49  A    between atoms: _122  and  _123
REMARK   50  A    between atoms: _122  and  _125
REMARK   51  A    between atoms: _125  and  _126
REMARK   52  A    between atoms: _126  and  _127
REMARK   53  A    between atoms: _132  and  _134
REMARK   54  A    between atoms: _134  and  _135
REMARK   55  A    between atoms: _137  and  _139
REMARK   56  A    between atoms: _139  and  _140
REMARK   57  A    between atoms: _139  and  _142
REMARK   58  A    between atoms: _144  and  _146
REMARK   59  A    between atoms: _146  and  _147
REMARK   60  A    between atoms: _146  and  _149
REMARK   61  A    between atoms: _149  and  _150
REMARK   62  A    between atoms: _150  and  _151
REMARK   63  A    between atoms: _156  and  _158
REMARK   64  A    between atoms: _158  and  _159
REMARK   65  A    between atoms: _158  and  _161
REMARK   66  A    between atoms: _161  and  _162
REMARK   67  A    between atoms: _168  and  _170
REMARK   68  A    between atoms: _170  and  _171
REMARK   69  A    between atoms: _170  and  _173
REMARK   70  A    between atoms: _173  and  _174
REMARK   71  A    between atoms: _174  and  _175
REMARK   72  A    between atoms: _175  and  _176
REMARK   73  A    between atoms: _185  and  _187
REMARK   74  A    between atoms: _187  and  _188
REMARK   75  A    between atoms: _187  and  _190
REMARK   76  A    between atoms: _190  and  _191
REMARK   77  A    between atoms: _193  and  _195
REMARK   78  A    between atoms: _195  and  _196
REMARK   79  A    between atoms: _195  and  _198
REMARK   80  A    between atoms: _201  and  _203
REMARK   81  A    between atoms: _203  and  _204
REMARK   82  A    between atoms: _203  and  _206
REMARK   83  A    between atoms: _206  and  _207
REMARK   84  A    between atoms: _207  and  _208
REMARK   85  A    between atoms: _211  and  _213
REMARK   86  A    between atoms: _213  and  _214
REMARK   87  A    between atoms: _217  and  _219
REMARK   88  A    between atoms: _219  and  _220
REMARK   89  A    between atoms: _219  and  _222
REMARK   90  A    between atoms: _225  and  _227
REMARK   91  A    between atoms: _227  and  _228
REMARK   92  A    between atoms: _227  and  _230
REMARK   93  A    between atoms: _233  and  _235
REMARK   94  A    between atoms: _235  and  _236
REMARK   95  A    between atoms: _235  and  _238
REMARK   96  A    between atoms: _238  and  _239
REMARK   97  A    between atoms: _244  and  _246
REMARK   98  A    between atoms: _246  and  _247
REMARK   99  A    between atoms: _246  and  _249
REMARK  100  A    between atoms: _249  and  _250
REMARK  101  A    between atoms: _253  and  _255
REMARK  102  A    between atoms: _255  and  _256
REMARK  103  A    between atoms: _255  and  _258
REMARK  104  A    between atoms: _258  and  _259
REMARK  105  A    between atoms: _264  and  _265
REMARK  106  A    between atoms: _267  and  _269
REMARK  107  A    between atoms: _269  and  _270
REMARK  108  A    between atoms: _269  and  _272
REMARK  109  A    between atoms: _272  and  _273
REMARK  110  A    between atoms: _276  and  _278
REMARK  111  A    between atoms: _278  and  _279
REMARK  112  A    between atoms: _278  and  _281
REMARK  113  A    between atoms: _281  and  _282
REMARK  114  A    between atoms: _285  and  _287
REMARK  115  A    between atoms: _287  and  _288
REMARK  116  A    between atoms: _287  and  _290
REMARK  117  A    between atoms: _290  and  _291
REMARK  118  A    between atoms: _291  and  _292
REMARK  119  A    between atoms: _294  and  _296
REMARK  120  A    between atoms: _296  and  _297
REMARK  121  A    between atoms: _296  and  _299
REMARK  122  A    between atoms: _302  and  _304
REMARK  123  A    between atoms: _304  and  _305
REMARK  124  A    between atoms: _304  and  _307
REMARK  125  A    between atoms: _307  and  _308
REMARK  126  A    between atoms: _311  and  _313
REMARK  127  A    between atoms: _313  and  _314
REMARK  128  A    between atoms: _313  and  _316
REMARK  129  A    between atoms: _316  and  _317
REMARK  130  A    between atoms: _320  and  _322
REMARK  131  A    between atoms: _322  and  _323
REMARK  132  A    between atoms: _322  and  _325
REMARK  133  A    between atoms: _325  and  _326
REMARK  134  A    between atoms: _328  and  _330
REMARK  135  A    between atoms: _330  and  _331
REMARK  136  A    between atoms: _330  and  _333
REMARK  137  A    between atoms: _333  and  _334
REMARK  138  A    between atoms: _334  and  _335
REMARK  139  A    between atoms: _338  and  _340
REMARK  140  A    between atoms: _340  and  _341
REMARK  141  A    between atoms: _343  and  _345
REMARK  142  A    between atoms: _345  and  _346
REMARK  143  A    between atoms: _348  and  _350
REMARK  144  A    between atoms: _350  and  _351
REMARK  145  A    between atoms: _350  and  _353
REMARK  146  A    between atoms: _353  and  _354
REMARK  147  A    between atoms: _354  and  _355
REMARK  148  A    between atoms: _357  and  _359
REMARK  149  A    between atoms: _359  and  _360
REMARK  150  A    between atoms: _359  and  _362
REMARK  151  A    between atoms: _362  and  _363
REMARK  152  A    between atoms: _366  and  _368
REMARK  153  A    between atoms: _368  and  _369
REMARK  154  A    between atoms: _368  and  _371
REMARK  155  A    between atoms: _371  and  _372
REMARK  156  A    between atoms: _378  and  _380
REMARK  157  A    between atoms: _380  and  _381
REMARK  158  A    between atoms: _380  and  _383
REMARK  159  A    between atoms: _383  and  _384
REMARK  160  A    between atoms: _387  and  _389
REMARK  161  A    between atoms: _389  and  _390
REMARK  162  A    between atoms: _389  and  _392
REMARK  163  A    between atoms: _392  and  _393
REMARK  164  A    between atoms: _396  and  _398
REMARK  165  A    between atoms: _398  and  _399
REMARK  166  A    between atoms: _398  and  _401
REMARK  167  A    between atoms: _401  and  _402
REMARK  168  A    between atoms: _402  and  _403
REMARK  169  A    between atoms: _403  and  _404
REMARK  170  A    between atoms: _414  and  _415
REMARK  171  A    between atoms: _420  and  _422
REMARK  172  A    between atoms: _422  and  _423
REMARK  173  A    between atoms: _422  and  _425
REMARK  174  A    between atoms: _425  and  _426
REMARK  175  A    between atoms: _432  and  _434
REMARK  176  A    between atoms: _434  and  _435
REMARK  177  A    between atoms: _437  and  _439
REMARK  178  A    between atoms: _439  and  _440
REMARK  179  A    between atoms: _439  and  _442
REMARK  180  A    between atoms: _442  and  _443
REMARK  181  A    between atoms: _446  and  _448
REMARK  182  A    between atoms: _448  and  _449
REMARK  183  A    between atoms: _448  and  _451
REMARK  184  A    between atoms: _451  and  _452
REMARK  185  A    between atoms: _458  and  _460
REMARK  186  A    between atoms: _460  and  _461
REMARK  187  A    between atoms: _460  and  _463
REMARK  188  A    between atoms: _463  and  _464
REMARK  189  A    between atoms: _464  and  _465
REMARK  190  A    between atoms: _467  and  _469
REMARK  191  A    between atoms: _469  and  _470
REMARK  192  A    between atoms: _469  and  _472
REMARK  193  A    between atoms: _472  and  _473
REMARK  194  A    between atoms: _473  and  _474
REMARK  195  A    between atoms: _477  and  _479
REMARK  196  A    between atoms: _479  and  _480
REMARK  197  A    between atoms: _479  and  _482
REMARK  198  A    between atoms: _482  and  _483
REMARK  199  A    between atoms: _483  and  _484
REMARK  200  A    between atoms: _484  and  _485
REMARK  201  A    between atoms: _485  and  _486
REMARK  202  A    between atoms: _490  and  _492
REMARK  203  A    between atoms: _492  and  _493
REMARK  204  A    between atoms: _492  and  _495
REMARK  205  A    between atoms: _495  and  _496
REMARK  206  A    between atoms: _502  and  _504
REMARK  207  A    between atoms: _504  and  _505
REMARK  208  A    between atoms: _504  and  _507
REMARK  209  A    between atoms: _510  and  _512
REMARK  210  A    between atoms: _512  and  _513
REMARK  211  A    between atoms: _512  and  _515
REMARK  212  A    between atoms: _515  and  _516
REMARK  213  A    between atoms: _521  and  _523
REMARK  214  A    between atoms: _523  and  _524
REMARK  215  A    between atoms: _523  and  _526
REMARK  216  A    between atoms: _529  and  _531
REMARK  217  A    between atoms: _531  and  _532
REMARK  218  A    between atoms: _531  and  _534
REMARK  219  A    between atoms: _534  and  _535
REMARK  220  A    between atoms: _538  and  _540
REMARK  221  A    between atoms: _540  and  _541
REMARK  222  A    between atoms: _540  and  _543
REMARK  223  A    between atoms: _543  and  _544
REMARK  224  A    between atoms: _547  and  _549
REMARK  225  A    between atoms: _549  and  _550
REMARK  226  A    between atoms: _549  and  _552
REMARK  227  A    between atoms: _552  and  _553
REMARK  228  A    between atoms: _556  and  _558
REMARK  229  A    between atoms: _558  and  _559
REMARK  230  A    between atoms: _558  and  _561
REMARK  231  A    between atoms: _561  and  _562
REMARK  232  A    between atoms: _562  and  _563
REMARK  233  A    between atoms: _565  and  _567
REMARK  234  A    between atoms: _567  and  _568
REMARK  235  A    between atoms: _567  and  _570
REMARK  236  A    between atoms: _570  and  _571
REMARK  237  A    between atoms: _573  and  _575
REMARK  238  A    between atoms: _575  and  _576
REMARK  239  A    between atoms: _575  and  _578
REMARK  240  A    between atoms: _578  and  _579
REMARK  241  A    between atoms: _582  and  _584
REMARK  242  A    between atoms: _584  and  _585
REMARK  243  A    between atoms: _584  and  _587
REMARK  244  A    between atoms: _587  and  _588
REMARK  245  A    between atoms: _593  and  _595
REMARK  246  A    between atoms: _595  and  _596
REMARK  247  A    between atoms: _595  and  _598
REMARK  248  A    between atoms: _598  and  _599
REMARK  249  A    between atoms: _602  and  _604
REMARK  250  A    between atoms: _604  and  _605
REMARK  251  A    between atoms: _604  and  _607
REMARK  252  A    between atoms: _607  and  _608
REMARK  253  A    between atoms: _611  and  _613
REMARK  254  A    between atoms: _613  and  _614
REMARK  255  A    between atoms: _613  and  _616
REMARK  256  A    between atoms: _616  and  _617
REMARK  257  A    between atoms: _617  and  _618
REMARK  258  A    between atoms: _623  and  _625
REMARK  259  A    between atoms: _625  and  _626
REMARK  260  A    between atoms: _625  and  _628
REMARK  261  A    between atoms: _628  and  _629
REMARK  262  A    between atoms: _632  and  _634
REMARK  263  A    between atoms: _634  and  _635
REMARK  264  A    between atoms: _634  and  _637
REMARK  265  A    between atoms: _637  and  _638
REMARK  266  A    between atoms: _643  and  _644
REMARK                            x       y       z     vdW  Elec       q    Type
REMARK                         _______ _______ _______ _____ _____    ______ ____
ROOT
ATOM      1  CA  ILE A   1      12.516  -5.335  -8.887  0.00  0.00    +0.133 C 
ENDROOT
BRANCH   1   2
ATOM      2  N   ILE A   1      11.231  -5.998  -9.049  0.00  0.00    -0.239 NA
ATOM      3  H   ILE A   1      10.986  -6.780  -8.409  0.00  0.00    +0.142 HD
ENDBRANCH   1   2
BRANCH   1   4
ATOM      4  CB  ILE A   1      12.991  -5.367  -7.413  0.00  0.00    +0.023 C 
ATOM      5  CG2 ILE A   1      14.350  -4.690  -7.286  0.00  0.00    +0.002 C 
BRANCH   4   6
ATOM      6  CG1 ILE A   1      11.972  -4.651  -6.522  0.00  0.00    +0.002 C 
ATOM      7  CD1 ILE A   1      12.338  -4.640  -5.052  0.00  0.00    +0.000 C 
ENDBRANCH   4   6
ENDBRANCH   1   4
BRANCH   1   8
ATOM      8  C   ILE A   1      13.538  -6.046  -9.771  0.00  0.00    +0.224 C 
ATOM      9  O   ILE A   1      14.572  -5.476 -10.122  0.00  0.00    -0.287 OA
ENDBRANCH   1   8
TORSDOF 4
REMARK  Name = ../refined-set-2016/1fm9/1fm9_pocket.pdb
REMARK  266 active torsions:
REMARK  status: ('A' for Active; 'I' for Inactive)
REMARK    1  A    between atoms: _1  and  _3
REMARK    2  A    between atoms: _3  and  _4
REMARK    3  A    between atoms: _3  and  _6
REMARK    4  A    between atoms: _6  and  _7
REMARK    5  A    between atoms: _10  and  _12
REMARK    6  A    between atoms: _12  and  _13
REMARK    7  A    between atoms: _12  and  _15
REMARK    8  A    between atoms: _15  and  _16
REMARK    9  A    between atoms: _19  and  _21
REMARK   10  A    between atoms: _21  and  _22
REMARK   11  A    between atoms: _24  and  _26
REMARK   12  A    between atoms: _26  and  _27
REMARK   13  A    between atoms: _26  and  _29
REMARK   14  A    between atoms: _29  and  _30
REMARK   15  A    between atoms: _30  and  _31
REMARK   16  A    between atoms: _34  and  _36
REMARK   17  A    between atoms: _36  and  _37
REMARK   18  A    between atoms: _36  and  _39
REMARK   19  A    between atoms: _39  and  _40
REMARK   20  A    between atoms: _44  and  _45
REMARK   21  A    between atoms: _50  and  _52
REMARK   22  A    between atoms: _52  and  _53
REMARK   23  A    between atoms: _52  and  _55
REMARK   24  A    between atoms: _55  and  _56
REMARK   25  A    between atoms: _59  and  _61
REMARK   26  A    between atoms: _61  and  _62
REMARK   27  A    between atoms: _61  and  _64
REMARK   28  A    between atoms: _67  and  _69
REMARK   29  A    between atoms: _69  and  _70
REMARK   30  A    between atoms: _73  and  _75
REMARK   31  A    between atoms: _75  and  _76
REMARK   32  A    between atoms: _75  and  _78
REMARK   33  A    between atoms: _78  and  _79
REMARK   34  A    between atoms: _82  and  _84
REMARK   35  A    between atoms: _84  and  _85
REMARK   36  A    between atoms: _84  and  _87
REMARK   37  A    between atoms: _87  and  _88
REMARK   38  A    between atoms: _88  and  _89
REMARK   39  A    between atoms: _89  and  _90
REMARK   40  A    between atoms: _99  and  _101
REMARK   41  A    between atoms: _101  and  _102
REMARK   42  A    between atoms: _101  and  _104
REMARK   43  A    between atoms: _104  and  _105
REMARK   44  A    between atoms: _108  and  _110
REMARK   45  A    between atoms: _110  and  _111
REMARK   46  A    between atoms: _110  and  _113
REMARK   47  A    between atoms: _113  and  _114
REMARK   48  A    between atoms: _120  and  _122
REMARK   49  A    between atoms: _122  and  _123
REMARK   50  A    between atoms: _122  and  _125
REMARK   51  A    between atoms: _125  and  _126
REMARK   52  A    between atoms: _126  and  _127
REMARK   53  A    between atoms: _132  and  _134
REMARK   54  A    between atoms: _134  and  _135
REMARK   55  A    between atoms: _137  and  _139
REMARK   56  A    between atoms: _139  and  _140
REMARK   57  A    between atoms: _139  and  _142
REMARK   58  A    between atoms: _144  and  _146
REMARK   59  A    between atoms: _146  and  _147
REMARK   60  A    between atoms: _146  and  _149
REMARK   61  A    between atoms: _149  and  _150
REMARK   62  A    between atoms: _150  and  _151
REMARK   63  A    between atoms: _156  and  _158
REMARK   64  A    between atoms: _158  and  _159
REMARK   65  A    between atoms: _158  and  _161
REMARK   66  A    between atoms: _161  and  _162
REMARK   67  A    between atoms: _168  and  _170
REMARK   68  A    between atoms: _170  and  _171
REMARK   69  A    between atoms: _170  and  _173
REMARK   70  A    between atoms: _173  and  _174
REMARK   71  A    between atoms: _174  and  _175
REMARK   72  A    between atoms: _175  and  _176
REMARK   73  A    between atoms: _185  and  _187
REMARK   74  A    between atoms: _187  and  _188
REMARK   75  A    between atoms: _187  and  _190
REMARK   76  A    between atoms: _190  and  _191
REMARK   77  A    between atoms: _193  and  _195
REMARK   78  A    between atoms: _195  and  _196
REMARK   79  A    between atoms: _195  and  _198
REMARK   80  A    between atoms: _201  and  _203
REMARK   81  A    between atoms: _203  and  _204
REMARK   82  A    between atoms: _203  and  _206
REMARK   83  A    between atoms: _206  and  _207
REMARK   84  A    between atoms: _207  and  _208
REMARK   85  A    between atoms: _211  and  _213
REMARK   86  A    between atoms: _213  and  _214
REMARK   87  A    between atoms: _217  and  _219
REMARK   88  A    between atoms: _219  and  _220
REMARK   89  A    between atoms: _219  and  _222
REMARK   90  A    between atoms: _225  and  _227
REMARK   91  A    between atoms: _227  and  _228
REMARK   92  A    between atoms: _227  and  _230
REMARK   93  A    between atoms: _233  and  _235
REMARK   94  A    between atoms: _235  and  _236
REMARK   95  A    between atoms: _235  and  _238
REMARK   96  A    between atoms: _238  and  _239
REMARK   97  A    between atoms: _244  and  _246
REMARK   98  A    between atoms: _246  and  _247
REMARK   99  A    between atoms: _246  and  _249
REMARK  100  A    between atoms: _249  and  _250
REMARK  101  A    between atoms: _253  and  _255
REMARK  102  A    between atoms: _255  and  _256
REMARK  103  A    between atoms: _255  and  _258
REMARK  104  A    between atoms: _258  and  _259
REMARK  105  A    between atoms: _264  and  _265
REMARK  106  A    between atoms: _267  and  _269
REMARK  107  A    between atoms: _269  and  _270
REMARK  108  A    between atoms: _269  and  _272
REMARK  109  A    between atoms: _272  and  _273
REMARK  110  A    between atoms: _276  and  _278
REMARK  111  A    between atoms: _278  and  _279
REMARK  112  A    between atoms: _278  and  _281
REMARK  113  A    between atoms: _281  and  _282
REMARK  114  A    between atoms: _285  and  _287
REMARK  115  A    between atoms: _287  and  _288
REMARK  116  A    between atoms: _287  and  _290
REMARK  117  A    between atoms: _290  and  _291
REMARK  118  A    between atoms: _291  and  _292
REMARK  119  A    between atoms: _294  and  _296
REMARK  120  A    between atoms: _296  and  _297
REMARK  121  A    between atoms: _296  and  _299
REMARK  122  A    between atoms: _302  and  _304
REMARK  123  A    between atoms: _304  and  _305
REMARK  124  A    between atoms: _304  and  _307
REMARK  125  A    between atoms: _307  and  _308
REMARK  126  A    between atoms: _311  and  _313
REMARK  127  A    between atoms: _313  and  _314
REMARK  128  A    between atoms: _313  and  _316
REMARK  129  A    between atoms: _316  and  _317
REMARK  130  A    between atoms: _320  and  _322
REMARK  131  A    between atoms: _322  and  _323
REMARK  132  A    between atoms: _322  and  _325
REMARK  133  A    between atoms: _325  and  _326
REMARK  134  A    between atoms: _328  and  _330
REMARK  135  A    between atoms: _330  and  _331
REMARK  136  A    between atoms: _330  and  _333
REMARK  137  A    between atoms: _333  and  _334
REMARK  138  A    between atoms: _334  and  _335
REMARK  139  A    between atoms: _338  and  _340
REMARK  140  A    between atoms: _340  and  _341
REMARK  141  A    between atoms: _343  and  _345
REMARK  142  A    between atoms: _345  and  _346
REMARK  143  A    between atoms: _348  and  _350
REMARK  144  A    between atoms: _350  and  _351
REMARK  145  A    between atoms: _350  and  _353
REMARK  146  A    between atoms: _353  and  _354
REMARK  147  A    between atoms: _354  and  _355
REMARK  148  A    between atoms: _357  and  _359
REMARK  149  A    between atoms: _359  and  _360
REMARK  150  A    between atoms: _359  and  _362
REMARK  151  A    between atoms: _362  and  _363
REMARK  152  A    between atoms: _366  and  _368
REMARK  153  A    between atoms: _368  and  _369
REMARK  154  A    between atoms: _368  and  _371
REMARK  155  A    between atoms: _371  and  _372
REMARK  156  A    between atoms: _378  and  _380
REMARK  157  A    between atoms: _380  and  _381
REMARK  158  A    between atoms: _380  and  _383
REMARK  159  A    between atoms: _383  and  _384
REMARK  160  A    between atoms: _387  and  _389
REMARK  161  A    between atoms: _389  and  _390
REMARK  162  A    between atoms: _389  and  _392
REMARK  163  A    between atoms: _392  and  _393
REMARK  164  A    between atoms: _396  and  _398
REMARK  165  A    between atoms: _398  and  _399
REMARK  166  A    between atoms: _398  and  _401
REMARK  167  A    between atoms: _401  and  _402
REMARK  168  A    between atoms: _402  and  _403
REMARK  169  A    between atoms: _403  and  _404
REMARK  170  A    between atoms: _414  and  _415
REMARK  171  A    between atoms: _420  and  _422
REMARK  172  A    between atoms: _422  and  _423
REMARK  173  A    between atoms: _422  and  _425
REMARK  174  A    between atoms: _425  and  _426
REMARK  175  A    between atoms: _432  and  _434
REMARK  176  A    between atoms: _434  and  _435
REMARK  177  A    between atoms: _437  and  _439
REMARK  178  A    between atoms: _439  and  _440
REMARK  179  A    between atoms: _439  and  _442
REMARK  180  A    between atoms: _442  and  _443
REMARK  181  A    between atoms: _446  and  _448
REMARK  182  A    between atoms: _448  and  _449
REMARK  183  A    between atoms: _448  and  _451
REMARK  184  A    between atoms: _451  and  _452
REMARK  185  A    between atoms: _458  and  _460
REMARK  186  A    between atoms: _460  and  _461
REMARK  187  A    between atoms: _460  and  _463
REMARK  188  A    between atoms: _463  and  _464
REMARK  189  A    between atoms: _464  and  _465
REMARK  190  A    between atoms: _467  and  _469
REMARK  191  A    between atoms: _469  and  _470
REMARK  192  A    between atoms: _469  and  _472
REMARK  193  A    between atoms: _472  and  _473
REMARK  194  A    between atoms: _473  and  _474
REMARK  195  A    between atoms: _477  and  _479
REMARK  196  A    between atoms: _479  and  _480
REMARK  197  A    between atoms: _479  and  _482
REMARK  198  A    between atoms: _482  and  _483
REMARK  199  A    between atoms: _483  and  _484
REMARK  200  A    between atoms: _484  and  _485
REMARK  201  A    between atoms: _485  and  _486
REMARK  202  A    between atoms: _490  and  _492
REMARK  203  A    between atoms: _492  and  _493
REMARK  204  A    between atoms: _492  and  _495
REMARK  205  A    between atoms: _495  and  _496
REMARK  206  A    between atoms: _502  and  _504
REMARK  207  A    between atoms: _504  and  _505
REMARK  208  A    between atoms: _504  and  _507
REMARK  209  A    between atoms: _510  and  _512
REMARK  210  A    between atoms: _512  and  _513
REMARK  211  A    between atoms: _512  and  _515
REMARK  212  A    between atoms: _515  and  _516
REMARK  213  A    between atoms: _521  and  _523
REMARK  214  A    between atoms: _523  and  _524
REMARK  215  A    between atoms: _523  and  _526
REMARK  216  A    between atoms: _529  and  _531
REMARK  217  A    between atoms: _531  and  _532
REMARK  218  A    between atoms: _531  and  _534
REMARK  219  A    between atoms: _534  and  _535
REMARK  220  A    between atoms: _538  and  _540
REMARK  221  A    between atoms: _540  and  _541
REMARK  222  A    between atoms: _540  and  _543
REMARK  223  A    between atoms: _543  and  _544
REMARK  224  A    between atoms: _547  and  _549
REMARK  225  A    between atoms: _549  and  _550
REMARK  226  A    between atoms: _549  and  _552
REMARK  227  A    between atoms: _552  and  _553
REMARK  228  A    between atoms: _556  and  _558
REMARK  229  A    between atoms: _558  and  _559
REMARK  230  A    between atoms: _558  and  _561
REMARK  231  A    between atoms: _561  and  _562
REMARK  232  A    between atoms: _562  and  _563
REMARK  233  A    between atoms: _565  and  _567
REMARK  234  A    between atoms: _567  and  _568
REMARK  235  A    between atoms: _567  and  _570
REMARK  236  A    between atoms: _570  and  _571
REMARK  237  A    between atoms: _573  and  _575
REMARK  238  A    between atoms: _575  and  _576
REMARK  239  A    between atoms: _575  and  _578
REMARK  240  A    between atoms: _578  and  _579
REMARK  241  A    between atoms: _582  and  _584
REMARK  242  A    between atoms: _584  and  _585
REMARK  243  A    between atoms: _584  and  _587
REMARK  244  A    between atoms: _587  and  _588
REMARK  245  A    between atoms: _593  and  _595
REMARK  246  A    between atoms: _595  and  _596
REMARK  247  A    between atoms: _595  and  _598
REMARK  248  A    between atoms: _598  and  _599
REMARK  249  A    between atoms: _602  and  _604
REMARK  250  A    between atoms: _604  and  _605
REMARK  251  A    between atoms: _604  and  _607
REMARK  252  A    between atoms: _607  and  _608
REMARK  253  A    between atoms: _611  and  _613
REMARK  254  A    between atoms: _613  and  _614
REMARK  255  A    between atoms: _613  and  _616
REMARK  256  A    between atoms: _616  and  _617
REMARK  257  A    between atoms: _617  and  _618
REMARK  258  A    between atoms: _623  and  _625
REMARK  259  A    between atoms: _625  and  _626
REMARK  260  A    between atoms: _625  and  _628
REMARK  261  A    between atoms: _628  and  _629
REMARK  262  A    between atoms: _632  and  _634
REMARK  263  A    between atoms: _634  and  _635
REMARK  264  A    between atoms: _634  and  _637
REMARK  265  A    between atoms: _637  and  _638
REMARK  266  A    between atoms: _643  and  _644
REMARK                            x       y       z     vdW  Elec       q    Type
REMARK                         _______ _______ _______ _____ _____    ______ ____
ROOT
ATOM      1  C   PRO A   1      18.527  -7.421  -2.957  0.00  0.00    +0.239 C 
ATOM      2  N   LEU A   2      19.354  -7.333  -1.919  0.00  0.00    -0.298 N 
ATOM      3  H   LEU A   2      19.373  -6.455  -1.362  0.00  0.00    +0.150 HD
ATOM      4  O   PRO A   1      18.442  -8.424  -3.670  0.00  0.00    -0.274 OA
ENDROOT
BRANCH   1   6
ATOM      5  N   PRO A   1      18.155  -5.421  -4.384  0.00  0.00    -0.210 NA
ATOM      6  CA  PRO A   1      17.669  -6.189  -3.234  0.00  0.00    +0.149 C 
ATOM      7  CB  PRO A   1      16.239  -6.549  -3.640  0.00  0.00    +0.028 C 
ATOM      8  CG  PRO A   1      16.324  -6.636  -5.130  0.00  0.00    +0.021 C 
ATOM      9  CD  PRO A   1      17.146  -5.414  -5.459  0.00  0.00    +0.089 C 
ENDBRANCH   1   6
BRANCH   2  10
ATOM     10  CA  LEU A   2      20.235  -8.432  -1.538  0.00  0.00    +0.137 C 
BRANCH  10  11
ATOM     11  C   LEU A   2      19.438  -9.719  -1.369  0.00  0.00    +0.227 C 
ATOM     12  O   LEU A   2      18.342  -9.709  -0.806  0.00  0.00    -0.286 OA
ENDBRANCH  10  11
BRANCH  10  13
ATOM     13  CB  LEU A   2      20.975  -8.093  -0.234  0.00  0.00    +0.028 C 
BRANCH  13  14
ATOM     14  CG  LEU A   2      20.241  -8.026   1.115  0.00  0.00    +0.002 C 
ATOM     15  CD2 LEU A   2      19.937  -9.431   1.616  0.00  0.00    +0.000 C 
ATOM     16  CD1 LEU A   2      18.959  -7.220   0.972  0.00  0.00    +0.000 C 
ENDBRANCH  13  14
ENDBRANCH  10  13
ENDBRANCH   2  10
TORSDOF 5
REMARK  Name = ../refined-set-2016/1fm9/1fm9_pocket.pdb
REMARK  266 active torsions:
REMARK  status: ('A' for Active; 'I' for Inactive)
REMARK    1  A    between atoms: _1  and  _3
REMARK    2  A    between atoms: _3  and  _4
REMARK    3  A    between atoms: _3  and  _6
REMARK    4  A    between atoms: _6  and  _7
REMARK    5  A    between atoms: _10  and  _12
REMARK    6  A    between atoms: _12  and  _13
REMARK    7  A    between atoms: _12  and  _15
REMARK    8  A    between atoms: _15  and  _16
REMARK    9  A    between atoms: _19  and  _21
REMARK   10  A    between atoms: _21  and  _22
REMARK   11  A    between atoms: _24  and  _26
REMARK   12  A    between atoms: _26  and  _27
REMARK   13  A    between atoms: _26  and  _29
REMARK   14  A    between atoms: _29  and  _30
REMARK   15  A    between atoms: _30  and  _31
REMARK   16  A    between atoms: _34  and  _36
REMARK   17  A    between atoms: _36  and  _37
REMARK   18  A    between atoms: _36  and  _39
REMARK   19  A    between atoms: _39  and  _40
REMARK   20  A    between atoms: _44  and  _45
REMARK   21  A    between atoms: _50  and  _52
REMARK   22  A    between atoms: _52  and  _53
REMARK   23  A    between atoms: _52  and  _55
REMARK   24  A    between atoms: _55  and  _56
REMARK   25  A    between atoms: _59  and  _61
REMARK   26  A    between atoms: _61  and  _62
REMARK   27  A    between atoms: _61  and  _64
REMARK   28  A    between atoms: _67  and  _69
REMARK   29  A    between atoms: _69  and  _70
REMARK   30  A    between atoms: _73  and  _75
REMARK   31  A    between atoms: _75  and  _76
REMARK   32  A    between atoms: _75  and  _78
REMARK   33  A    between atoms: _78  and  _79
REMARK   34  A    between atoms: _82  and  _84
REMARK   35  A    between atoms: _84  and  _85
REMARK   36  A    between atoms: _84  and  _87
REMARK   37  A    between atoms: _87  and  _88
REMARK   38  A    between atoms: _88  and  _89
REMARK   39  A    between atoms: _89  and  _90
REMARK   40  A    between atoms: _99  and  _101
REMARK   41  A    between atoms: _101  and  _102
REMARK   42  A    between atoms: _101  and  _104
REMARK   43  A    between atoms: _104  and  _105
REMARK   44  A    between atoms: _108  and  _110
REMARK   45  A    between atoms: _110  and  _111
REMARK   46  A    between atoms: _110  and  _113
REMARK   47  A    between atoms: _113  and  _114
REMARK   48  A    between atoms: _120  and  _122
REMARK   49  A    between atoms: _122  and  _123
REMARK   50  A    between atoms: _122  and  _125
REMARK   51  A    between atoms: _125  and  _126
REMARK   52  A    between atoms: _126  and  _127
REMARK   53  A    between atoms: _132  and  _134
REMARK   54  A    between atoms: _134  and  _135
REMARK   55  A    between atoms: _137  and  _139
REMARK   56  A    between atoms: _139  and  _140
REMARK   57  A    between atoms: _139  and  _142
REMARK   58  A    between atoms: _144  and  _146
REMARK   59  A    between atoms: _146  and  _147
REMARK   60  A    between atoms: _146  and  _149
REMARK   61  A    between atoms: _149  and  _150
REMARK   62  A    between atoms: _150  and  _151
REMARK   63  A    between atoms: _156  and  _158
REMARK   64  A    between atoms: _158  and  _159
REMARK   65  A    between atoms: _158  and  _161
REMARK   66  A    between atoms: _161  and  _162
REMARK   67  A    between atoms: _168  and  _170
REMARK   68  A    between atoms: _170  and  _171
REMARK   69  A    between atoms: _170  and  _173
REMARK   70  A    between atoms: _173  and  _174
REMARK   71  A    between atoms: _174  and  _175
REMARK   72  A    between atoms: _175  and  _176
REMARK   73  A    between atoms: _185  and  _187
REMARK   74  A    between atoms: _187  and  _188
REMARK   75  A    between atoms: _187  and  _190
REMARK   76  A    between atoms: _190  and  _191
REMARK   77  A    between atoms: _193  and  _195
REMARK   78  A    between atoms: _195  and  _196
REMARK   79  A    between atoms: _195  and  _198
REMARK   80  A    between atoms: _201  and  _203
REMARK   81  A    between atoms: _203  and  _204
REMARK   82  A    between atoms: _203  and  _206
REMARK   83  A    between atoms: _206  and  _207
REMARK   84  A    between atoms: _207  and  _208
REMARK   85  A    between atoms: _211  and  _213
REMARK   86  A    between atoms: _213  and  _214
REMARK   87  A    between atoms: _217  and  _219
REMARK   88  A    between atoms: _219  and  _220
REMARK   89  A    between atoms: _219  and  _222
REMARK   90  A    between atoms: _225  and  _227
REMARK   91  A    between atoms: _227  and  _228
REMARK   92  A    between atoms: _227  and  _230
REMARK   93  A    between atoms: _233  and  _235
REMARK   94  A    between atoms: _235  and  _236
REMARK   95  A    between atoms: _235  and  _238
REMARK   96  A    between atoms: _238  and  _239
REMARK   97  A    between atoms: _244  and  _246
REMARK   98  A    between atoms: _246  and  _247
REMARK   99  A    between atoms: _246  and  _249
REMARK  100  A    between atoms: _249  and  _250
REMARK  101  A    between atoms: _253  and  _255
REMARK  102  A    between atoms: _255  and  _256
REMARK  103  A    between atoms: _255  and  _258
REMARK  104  A    between atoms: _258  and  _259
REMARK  105  A    between atoms: _264  and  _265
REMARK  106  A    between atoms: _267  and  _269
REMARK  107  A    between atoms: _269  and  _270
REMARK  108  A    between atoms: _269  and  _272
REMARK  109  A    between atoms: _272  and  _273
REMARK  110  A    between atoms: _276  and  _278
REMARK  111  A    between atoms: _278  and  _279
REMARK  112  A    between atoms: _278  and  _281
REMARK  113  A    between atoms: _281  and  _282
REMARK  114  A    between atoms: _285  and  _287
REMARK  115  A    between atoms: _287  and  _288
REMARK  116  A    between atoms: _287  and  _290
REMARK  117  A    between atoms: _290  and  _291
REMARK  118  A    between atoms: _291  and  _292
REMARK  119  A    between atoms: _294  and  _296
REMARK  120  A    between atoms: _296  and  _297
REMARK  121  A    between atoms: _296  and  _299
REMARK  122  A    between atoms: _302  and  _304
REMARK  123  A    between atoms: _304  and  _305
REMARK  124  A    between atoms: _304  and  _307
REMARK  125  A    between atoms: _307  and  _308
REMARK  126  A    between atoms: _311  and  _313
REMARK  127  A    between atoms: _313  and  _314
REMARK  128  A    between atoms: _313  and  _316
REMARK  129  A    between atoms: _316  and  _317
REMARK  130  A    between atoms: _320  and  _322
REMARK  131  A    between atoms: _322  and  _323
REMARK  132  A    between atoms: _322  and  _325
REMARK  133  A    between atoms: _325  and  _326
REMARK  134  A    between atoms: _328  and  _330
REMARK  135  A    between atoms: _330  and  _331
REMARK  136  A    between atoms: _330  and  _333
REMARK  137  A    between atoms: _333  and  _334
REMARK  138  A    between atoms: _334  and  _335
REMARK  139  A    between atoms: _338  and  _340
REMARK  140  A    between atoms: _340  and  _341
REMARK  141  A    between atoms: _343  and  _345
REMARK  142  A    between atoms: _345  and  _346
REMARK  143  A    between atoms: _348  and  _350
REMARK  144  A    between atoms: _350  and  _351
REMARK  145  A    between atoms: _350  and  _353
REMARK  146  A    between atoms: _353  and  _354
REMARK  147  A    between atoms: _354  and  _355
REMARK  148  A    between atoms: _357  and  _359
REMARK  149  A    between atoms: _359  and  _360
REMARK  150  A    between atoms: _359  and  _362
REMARK  151  A    between atoms: _362  and  _363
REMARK  152  A    between atoms: _366  and  _368
REMARK  153  A    between atoms: _368  and  _369
REMARK  154  A    between atoms: _368  and  _371
REMARK  155  A    between atoms: _371  and  _372
REMARK  156  A    between atoms: _378  and  _380
REMARK  157  A    between atoms: _380  and  _381
REMARK  158  A    between atoms: _380  and  _383
REMARK  159  A    between atoms: _383  and  _384
REMARK  160  A    between atoms: _387  and  _389
REMARK  161  A    between atoms: _389  and  _390
REMARK  162  A    between atoms: _389  and  _392
REMARK  163  A    between atoms: _392  and  _393
REMARK  164  A    between atoms: _396  and  _398
REMARK  165  A    between atoms: _398  and  _399
REMARK  166  A    between atoms: _398  and  _401
REMARK  167  A    between atoms: _401  and  _402
REMARK  168  A    between atoms: _402  and  _403
REMARK  169  A    between atoms: _403  and  _404
REMARK  170  A    between atoms: _414  and  _415
REMARK  171  A    between atoms: _420  and  _422
REMARK  172  A    between atoms: _422  and  _423
REMARK  173  A    between atoms: _422  and  _425
REMARK  174  A    between atoms: _425  and  _426
REMARK  175  A    between atoms: _432  and  _434
REMARK  176  A    between atoms: _434  and  _435
REMARK  177  A    between atoms: _437  and  _439
REMARK  178  A    between atoms: _439  and  _440
REMARK  179  A    between atoms: _439  and  _442
REMARK  180  A    between atoms: _442  and  _443
REMARK  181  A    between atoms: _446  and  _448
REMARK  182  A    between atoms: _448  and  _449
REMARK  183  A    between atoms: _448  and  _451
REMARK  184  A    between atoms: _451  and  _452
REMARK  185  A    between atoms: _458  and  _460
REMARK  186  A    between atoms: _460  and  _461
REMARK  187  A    between atoms: _460  and  _463
REMARK  188  A    between atoms: _463  and  _464
REMARK  189  A    between atoms: _464  and  _465
REMARK  190  A    between atoms: _467  and  _469
REMARK  191  A    between atoms: _469  and  _470
REMARK  192  A    between atoms: _469  and  _472
REMARK  193  A    between atoms: _472  and  _473
REMARK  194  A    between atoms: _473  and  _474
REMARK  195  A    between atoms: _477  and  _479
REMARK  196  A    between atoms: _479  and  _480
REMARK  197  A    between atoms: _479  and  _482
REMARK  198  A    between atoms: _482  and  _483
REMARK  199  A    between atoms: _483  and  _484
REMARK  200  A    between atoms: _484  and  _485
REMARK  201  A    between atoms: _485  and  _486
REMARK  202  A    between atoms: _490  and  _492
REMARK  203  A    between atoms: _492  and  _493
REMARK  204  A    between atoms: _492  and  _495
REMARK  205  A    between atoms: _495  and  _496
REMARK  206  A    between atoms: _502  and  _504
REMARK  207  A    between atoms: _504  and  _505
REMARK  208  A    between atoms: _504  and  _507
REMARK  209  A    between atoms: _510  and  _512
REMARK  210  A    between atoms: _512  and  _513
REMARK  211  A    between atoms: _512  and  _515
REMARK  212  A    between atoms: _515  and  _516
REMARK  213  A    between atoms: _521  and  _523
REMARK  214  A    between atoms: _523  and  _524
REMARK  215  A    between atoms: _523  and  _526
REMARK  216  A    between atoms: _529  and  _531
REMARK  217  A    between atoms: _531  and  _532
REMARK  218  A    between atoms: _531  and  _534
REMARK  219  A    between atoms: _534  and  _535
REMARK  220  A    between atoms: _538  and  _540
REMARK  221  A    between atoms: _540  and  _541
REMARK  222  A    between atoms: _540  and  _543
REMARK  223  A    between atoms: _543  and  _544
REMARK  224  A    between atoms: _547  and  _549
REMARK  225  A    between atoms: _549  and  _550
REMARK  226  A    between atoms: _549  and  _552
REMARK  227  A    between atoms: _552  and  _553
REMARK  228  A    between atoms: _556  and  _558
REMARK  229  A    between atoms: _558  and  _559
REMARK  230  A    between atoms: _558  and  _561
REMARK  231  A    between atoms: _561  and  _562
REMARK  232  A    between atoms: _562  and  _563
REMARK  233  A    between atoms: _565  and  _567
REMARK  234  A    between atoms: _567  and  _568
REMARK  235  A    between atoms: _567  and  _570
REMARK  236  A    between atoms: _570  and  _571
REMARK  237  A    between atoms: _573  and  _575
REMARK  238  A    between atoms: _575  and  _576
REMARK  239  A    between atoms: _575  and  _578
REMARK  240  A    between atoms: _578  and  _579
REMARK  241  A    between atoms: _582  and  _584
REMARK  242  A    between atoms: _584  and  _585
REMARK  243  A    between atoms: _584  and  _587
REMARK  244  A    between atoms: _587  and  _588
REMARK  245  A    between atoms: _593  and  _595
REMARK  246  A    between atoms: _595  and  _596
REMARK  247  A    between atoms: _595  and  _598
REMARK  248  A    between atoms: _598  and  _599
REMARK  249  A    between atoms: _602  and  _604
REMARK  250  A    between atoms: _604  and  _605
REMARK  251  A    between atoms: _604  and  _607
REMARK  252  A    between atoms: _607  and  _608
REMARK  253  A    between atoms: _611  and  _613
REMARK  254  A    between atoms: _613  and  _614
REMARK  255  A    between atoms: _613  and  _616
REMARK  256  A    between atoms: _616  and  _617
REMARK  257  A    between atoms: _617  and  _618
REMARK  258  A    between atoms: _623  and  _625
REMARK  259  A    between atoms: _625  and  _626
REMARK  260  A    between atoms: _625  and  _628
REMARK  261  A    between atoms: _628  and  _629
REMARK  262  A    between atoms: _632  and  _634
REMARK  263  A    between atoms: _634  and  _635
REMARK  264  A    between atoms: _634  and  _637
REMARK  265  A    between atoms: _637  and  _638
REMARK  266  A    between atoms: _643  and  _644
REMARK                            x       y       z     vdW  Elec       q    Type
REMARK                         _______ _______ _______ _____ _____    ______ ____
ROOT
ATOM      1  CA  CYS A   9      13.382  -6.017   7.236  0.00  0.00    +0.160 C 
ENDROOT
BRANCH   1   2
ATOM      2  C   CYS A   9      14.831  -5.703   7.643  0.00  0.00    +0.242 C 
ATOM      3  O   CYS A   9      15.153  -4.566   7.987  0.00  0.00    -0.273 OA
ATOM      4  N   GLN A  10      15.687  -6.722   7.578  0.00  0.00    -0.297 N 
ATOM      5  H   GLN A  10      15.336  -7.651   7.269  0.00  0.00    +0.150 HD
BRANCH   4   6
ATOM      6  CA  GLN A  10      17.102  -6.585   7.924  0.00  0.00    +0.149 C 
BRANCH   6   7
ATOM      7  C   GLN A  10      17.763  -5.471   7.111  0.00  0.00    +0.241 C 
ATOM      8  O   GLN A  10      18.493  -4.645   7.650  0.00  0.00    -0.273 OA
ATOM      9  N   PHE A  11      17.495  -5.458   5.808  0.00  0.00    -0.297 N 
ATOM     10  H   PHE A  11      16.877  -6.189   5.401  0.00  0.00    +0.150 HD
BRANCH   9  11
ATOM     11  CA  PHE A  11      18.059  -4.430   4.947  0.00  0.00    +0.153 C 
BRANCH  11  12
ATOM     12  C   PHE A  11      17.565  -3.027   5.336  0.00  0.00    +0.241 C 
ATOM     13  N   ARG A  12      16.259  -2.906   5.539  0.00  0.00    -0.297 N 
ATOM     14  H   ARG A  12      15.637  -3.732   5.429  0.00  0.00    +0.150 HD
ATOM     15  O   PHE A  11      18.352  -2.082   5.420  0.00  0.00    -0.273 OA
BRANCH  13  16
ATOM     16  CA  ARG A  12      15.700  -1.623   5.914  0.00  0.00    +0.149 C 
BRANCH  16  17
ATOM     17  C   ARG A  12      16.281  -1.181   7.259  0.00  0.00    +0.241 C 
ATOM     18  N   SER A  13      16.353  -2.127   8.190  0.00  0.00    -0.295 N 
ATOM     19  H   SER A  13      16.026  -3.089   7.970  0.00  0.00    +0.150 HD
ATOM     20  O   ARG A  12      16.663  -0.023   7.440  0.00  0.00    -0.273 OA
BRANCH  18  21
ATOM     21  CA  SER A  13      16.884  -1.834   9.514  0.00  0.00    +0.178 C 
BRANCH  21  22
ATOM     22  C   SER A  13      18.302  -1.252   9.424  0.00  0.00    +0.243 C 
ATOM     23  O   SER A  13      18.580  -0.193   9.982  0.00  0.00    -0.273 OA
ATOM     24  N   VAL A  14      19.183  -1.970   8.726  0.00  0.00    -0.297 N 
ATOM     25  H   VAL A  14      18.880  -2.869   8.300  0.00  0.00    +0.150 HD
BRANCH  24  26
ATOM     26  CA  VAL A  14      20.563  -1.526   8.545  0.00  0.00    +0.149 C 
BRANCH  26  27
ATOM     27  C   VAL A  14      20.602  -0.096   7.960  0.00  0.00    +0.241 C 
ATOM     28  O   VAL A  14      21.407   0.724   8.379  0.00  0.00    -0.273 OA
ATOM     29  N   GLU A  15      19.727   0.192   6.999  0.00  0.00    -0.297 N 
ATOM     30  H   GLU A  15      19.074  -0.543   6.659  0.00  0.00    +0.150 HD
BRANCH  29  31
ATOM     31  CA  GLU A  15      19.676   1.543   6.414  0.00  0.00    +0.149 C 
BRANCH  31  32
ATOM     32  C   GLU A  15      19.235   2.535   7.501  0.00  0.00    +0.241 C 
ATOM     33  N   ALA A  16      18.200   2.164   8.252  0.00  0.00    -0.297 N 
ATOM     34  H   ALA A  16      17.754   1.240   8.083  0.00  0.00    +0.150 HD
ATOM     35  O   GLU A  15      19.823   3.608   7.649  0.00  0.00    -0.273 OA
BRANCH  33  36
ATOM     36  CA  ALA A  16      17.677   3.027   9.308  0.00  0.00    +0.149 C 
ATOM     37  CB  ALA A  16      16.502   2.342  10.011  0.00  0.00    +0.031 C 
BRANCH  36  38
ATOM     38  C   ALA A  16      18.740   3.427  10.332  0.00  0.00    +0.241 C 
ATOM     39  N   VAL A  17      19.538   2.463  10.772  0.00  0.00    -0.298 N 
ATOM     40  H   VAL A  17      19.421   1.492  10.419  0.00  0.00    +0.150 HD
ATOM     41  O   ALA A  16      18.840   4.596  10.709  0.00  0.00    -0.273 OA
BRANCH  39  42
ATOM     42  CA  VAL A  17      20.575   2.760  11.746  0.00  0.00    +0.137 C 
BRANCH  42  43
ATOM     43  CB  VAL A  17      21.399   1.495  12.081  0.00  0.00    +0.026 C 
ATOM     44  CG2 VAL A  17      20.555   0.536  12.905  0.00  0.00    +0.002 C 
ATOM     45  CG1 VAL A  17      22.658   1.883  12.848  0.00  0.00    +0.002 C 
ENDBRANCH  42  43
BRANCH  42  46
ATOM     46  C   VAL A  17      21.508   3.847  11.221  0.00  0.00    +0.227 C 
ATOM     47  O   VAL A  17      21.962   4.705  11.988  0.00  0.00    -0.286 OA
ENDBRANCH  42  46
ENDBRANCH  39  42
ENDBRANCH  36  38
ENDBRANCH  33  36
ENDBRANCH  31  32
BRANCH  31  48
ATOM     48  CB  GLU A  15      18.691   1.631   5.231  0.00  0.00    +0.041 C 
BRANCH  48  49
ATOM     49  CG  GLU A  15      19.258   1.270   3.847  0.00  0.00    +0.116 C 
BRANCH  49  50
ATOM     50  CD  GLU A  15      18.482   1.906   2.671  0.00  0.00    +0.365 C 
ATOM     51  OE2 GLU A  15      17.232   1.999   2.743  0.00  0.00    -0.246 OA
ATOM     52  OE1 GLU A  15      19.124   2.297   1.667  0.00  0.00    -0.246 OA
ENDBRANCH  49  50
ENDBRANCH  48  49
ENDBRANCH  31  48
ENDBRANCH  29  31
ENDBRANCH  26  27
BRANCH  26  53
ATOM     53  CB  VAL A  14      21.343  -2.528   7.643  0.00  0.00    +0.027 C 
ATOM     54  CG2 VAL A  14      21.831  -3.694   8.478  0.00  0.00    +0.002 C 
ATOM     55  CG1 VAL A  14      22.524  -1.850   6.964  0.00  0.00    +0.002 C 
ENDBRANCH  26  53
ENDBRANCH  24  26
ENDBRANCH  21  22
BRANCH  21  56
ATOM     56  CB  SER A  13      16.892  -3.104  10.349  0.00  0.00    +0.166 C 
BRANCH  56  57
ATOM     57  OG  SER A  13      17.304  -2.816  11.667  0.00  0.00    -0.380 OA
ATOM     58  H   SER A  13      17.305  -3.650  12.201  0.00  0.00    +0.211 HD
ENDBRANCH  56  57
ENDBRANCH  21  56
ENDBRANCH  18  21
ENDBRANCH  16  17
BRANCH  16  59
ATOM     59  CB  ARG A  12      14.174  -1.713   6.022  0.00  0.00    +0.033 C 
BRANCH  59  60
ATOM     60  CG  ARG A  12      13.543  -0.429   6.560  0.00  0.00    +0.045 C 
BRANCH  60  61
ATOM     61  CD  ARG A  12      14.106   0.799   5.834  0.00  0.00    +0.174 C 
BRANCH  61  62
ATOM     62  NE  ARG A  12      14.006   1.999   6.659  0.00  0.00    -0.265 N 
ATOM     63  HE  ARG A  12      13.398   1.956   7.502  0.00  0.00    +0.259 HD
ATOM     64  CZ  ARG A  12      14.636   3.142   6.410  0.00  0.00    +0.342 C 
ATOM     65  NH2 ARG A  12      14.477   4.164   7.246  0.00  0.00    -0.292 N 
ATOM     66 HH21 ARG A  12      13.866   4.062   8.081  0.00  0.00    +0.255 HD
ATOM     67 HH22 ARG A  12      14.964   5.065   7.064  0.00  0.00    +0.255 HD
ATOM     68  NH1 ARG A  12      15.425   3.268   5.350  0.00  0.00    -0.292 N 
ATOM     69 HH11 ARG A  12      15.912   4.169   5.168  0.00  0.00    +0.255 HD
ATOM     70 HH12 ARG A  12      15.557   2.466   4.701  0.00  0.00    +0.255 HD
ENDBRANCH  61  62
ENDBRANCH  60  61
ENDBRANCH  59  60
ENDBRANCH  16  59
ENDBRANCH  13  16
ENDBRANCH  11  12
BRANCH  11  71
ATOM     71  CB  PHE A  11      17.708  -4.701   3.486  0.00  0.00    +0.055 C 
BRANCH  71  72
ATOM     72  CG  PHE A  11      18.079  -3.573   2.579  0.00  0.00    -0.020 A 
ATOM     73  CD2 PHE A  11      17.314  -2.424   2.512  0.00  0.00    -0.004 A 
ATOM     74  CE2 PHE A  11      17.707  -1.331   1.758  0.00  0.00    -0.000 A 
ATOM     75  CZ  PHE A  11      18.899  -1.390   1.045  0.00  0.00    -0.000 A 
ATOM     76  CE1 PHE A  11      19.681  -2.542   1.096  0.00  0.00    -0.000 A 
ATOM     77  CD1 PHE A  11      19.276  -3.633   1.858  0.00  0.00    -0.004 A 
ENDBRANCH  71  72
ENDBRANCH  11  71
ENDBRANCH   9  11
ENDBRANCH   6   7
BRANCH   6  78
ATOM     78  CB  GLN A  10      17.837  -7.915   7.680  0.00  0.00    +0.039 C 
BRANCH  78  79
ATOM     79  CG  GLN A  10      19.350  -7.879   7.903  0.00  0.00    +0.087 C 
BRANCH  79  80
ATOM     80  CD  GLN A  10      19.904  -9.179   8.488  0.00  0.00    +0.219 C 
ATOM     81  OE1 GLN A  10      19.903  -9.381   9.696  0.00  0.00    -0.275 OA
ATOM     82  NE2 GLN A  10      20.370 -10.071   7.616  0.00  0.00    -0.329 N 
ATOM     83 HE21 GLN A  10      20.751 -10.978   7.953  0.00  0.00    +0.145 HD
ATOM     84 HE22 GLN A  10      20.353  -9.861   6.598  0.00  0.00    +0.145 HD
ENDBRANCH  79  80
ENDBRANCH  78  79
ENDBRANCH   6  78
ENDBRANCH   4   6
ENDBRANCH   1   2
BRANCH   1  86
ATOM     85  C   GLY A   8      13.806  -6.228   4.864  0.00  0.00    +0.243 C 
ATOM     86  N   CYS A   9      13.389  -6.782   5.997  0.00  0.00    -0.296 N 
ATOM     87  H   CYS A   9      13.065  -7.770   5.999  0.00  0.00    +0.150 HD
ATOM     88  O   GLY A   8      14.186  -5.064   4.795  0.00  0.00    -0.273 OA
BRANCH  85  89
ATOM     89  CA  GLY A   8      13.791  -7.119   3.626  0.00  0.00    +0.176 C 
BRANCH  89  92
ATOM     90  C   GLN A   7      15.592  -8.608   4.232  0.00  0.00    +0.241 C 
ATOM     91  O   GLN A   7      16.404  -7.686   4.249  0.00  0.00    -0.273 OA
ATOM     92  N   GLY A   8      14.305  -8.442   3.942  0.00  0.00    -0.295 N 
ATOM     93  H   GLY A   8      13.664  -9.261   3.941  0.00  0.00    +0.150 HD
BRANCH  90  94
ATOM     94  CA  GLN A   7      16.026 -10.033   4.573  0.00  0.00    +0.149 C 
BRANCH  94  97
ATOM     95  C   PHE A   6      14.683 -10.716   6.458  0.00  0.00    +0.241 C 
ATOM     96  O   PHE A   6      15.309  -9.963   7.191  0.00  0.00    -0.273 OA
ATOM     97  N   GLN A   7      14.948 -10.825   5.158  0.00  0.00    -0.297 N 
ATOM     98  H   GLN A   7      14.391 -11.470   4.563  0.00  0.00    +0.150 HD
BRANCH  95  99
ATOM     99  CA  PHE A   6      13.531 -11.560   7.025  0.00  0.00    +0.153 C 
BRANCH  99 101
ATOM    100  C   ILE A   5      11.806 -10.654   5.579  0.00  0.00    +0.241 C 
ATOM    101  N   PHE A   6      12.460 -11.708   6.048  0.00  0.00    -0.297 N 
ATOM    102  H   PHE A   6      12.204 -12.658   5.712  0.00  0.00    +0.150 HD
ATOM    103  O   ILE A   5      12.042  -9.501   5.931  0.00  0.00    -0.273 OA
BRANCH 100 104
ATOM    104  CA  ILE A   5      10.706 -10.953   4.570  0.00  0.00    +0.149 C 
BRANCH 104 106
ATOM    105  C   ARG A   4      12.117 -11.860   2.822  0.00  0.00    +0.241 C 
ATOM    106  N   ILE A   5      11.143 -12.047   3.710  0.00  0.00    -0.297 N 
ATOM    107  H   ILE A   5      10.690 -12.980   3.791  0.00  0.00    +0.150 HD
ATOM    108  O   ARG A   4      12.669 -10.779   2.650  0.00  0.00    -0.273 OA
BRANCH 105 109
ATOM    109  CA  ARG A   4      12.510 -13.082   2.001  0.00  0.00    +0.149 C 
BRANCH 109 112
ATOM    110  C   ILE A   3      13.597 -14.316   3.806  0.00  0.00    +0.241 C 
ATOM    111  O   ILE A   3      14.422 -13.432   4.011  0.00  0.00    -0.273 OA
ATOM    112  N   ARG A   4      12.650 -14.239   2.877  0.00  0.00    -0.297 N 
ATOM    113  H   ARG A   4      11.985 -15.032   2.771  0.00  0.00    +0.150 HD
BRANCH 110 114
ATOM    114  CA  ILE A   3      13.607 -15.601   4.640  0.00  0.00    +0.149 C 
BRANCH 114 117
ATOM    115  C   ALA A   2      11.294 -15.497   5.387  0.00  0.00    +0.241 C 
ATOM    116  O   ALA A   2      11.457 -14.403   5.917  0.00  0.00    -0.273 OA
ATOM    117  N   ILE A   3      12.258 -16.149   4.742  0.00  0.00    -0.297 N 
ATOM    118  H   ILE A   3      12.046 -17.067   4.302  0.00  0.00    +0.150 HD
BRANCH 115 119
ATOM    119  CA  ALA A   2       9.932 -16.178   5.431  0.00  0.00    +0.149 C 
ATOM    120  CB  ALA A   2       9.883 -17.168   6.589  0.00  0.00    +0.031 C 
BRANCH 119 122
ATOM    121  C   VAL A   1       9.207 -16.159   3.136  0.00  0.00    +0.238 C 
ATOM    122  N   ALA A   2       9.631 -16.857   4.181  0.00  0.00    -0.297 N 
ATOM    123  H   ALA A   2       9.748 -17.888   4.107  0.00  0.00    +0.150 HD
ATOM    124  O   VAL A   1       9.049 -14.943   3.172  0.00  0.00    -0.274 OA
BRANCH 121 125
ATOM    125  CA  VAL A   1       8.902 -16.942   1.856  0.00  0.00    +0.145 C 
BRANCH 125 126
ATOM    126  CB  VAL A   1       7.370 -16.977   1.715  0.00  0.00    +0.025 C 
ATOM    127  CG2 VAL A   1       6.755 -17.590   2.965  0.00  0.00    +0.002 C 
ATOM    128  CG1 VAL A   1       6.838 -15.576   1.484  0.00  0.00    +0.002 C 
ENDBRANCH 125 126
BRANCH 125 129
ATOM    129  N   VAL A   1       9.437 -18.298   1.809  0.00  0.00    -0.238 NA
ATOM    130  H   VAL A   1       8.806 -19.091   2.042  0.00  0.00    +0.142 HD
ENDBRANCH 125 129
ENDBRANCH 121 125
ENDBRANCH 119 122
ENDBRANCH 115 119
ENDBRANCH 114 117
BRANCH 114 131
ATOM    131  CB  ILE A   3      14.579 -16.619   3.981  0.00  0.00    +0.027 C 
ATOM    132  CG2 ILE A   3      14.558 -16.460   2.478  0.00  0.00    +0.002 C 
BRANCH 131 133
ATOM    133  CG1 ILE A   3      16.015 -16.371   4.452  0.00  0.00    +0.002 C 
ATOM    134  CD1 ILE A   3      16.261 -16.692   5.917  0.00  0.00    +0.000 C 
ENDBRANCH 131 133
ENDBRANCH 114 131
ENDBRANCH 110 114
ENDBRANCH 109 112
BRANCH 109 135
ATOM    135  CB  ARG A   4      11.420 -13.347   0.949  0.00  0.00    +0.033 C 
BRANCH 135 136
ATOM    136  CG  ARG A   4      11.527 -14.704   0.264  0.00  0.00    +0.045 C 
BRANCH 136 137
ATOM    137  CD  ARG A   4      12.609 -14.731  -0.806  0.00  0.00    +0.174 C 
BRANCH 137 138
ATOM    138  NE  ARG A   4      12.147 -14.168  -2.074  0.00  0.00    -0.265 N 
ATOM    139  HE  ARG A   4      12.625 -13.317  -2.432  0.00  0.00    +0.259 HD
ATOM    140  CZ  ARG A   4      11.153 -14.676  -2.800  0.00  0.00    +0.342 C 
ATOM    141  NH2 ARG A   4      10.511 -15.760  -2.386  0.00  0.00    -0.292 N 
ATOM    142 HH21 ARG A   4      10.783 -16.216  -1.492  0.00  0.00    +0.255 HD
ATOM    143 HH22 ARG A   4       9.735 -16.154  -2.955  0.00  0.00    +0.255 HD
ATOM    144  NH1 ARG A   4      10.796 -14.102  -3.940  0.00  0.00    -0.292 N 
ATOM    145 HH11 ARG A   4      11.293 -13.251  -4.271  0.00  0.00    +0.255 HD
ATOM    146 HH12 ARG A   4      10.019 -14.503  -4.503  0.00  0.00    +0.255 HD
ENDBRANCH 137 138
ENDBRANCH 136 137
ENDBRANCH 135 136
ENDBRANCH 109 135
ENDBRANCH 105 109
ENDBRANCH 104 106
BRANCH 104 147
ATOM    147  CB  ILE A   5       9.420 -11.280   5.345  0.00  0.00    +0.027 C 
ATOM    148  CG2 ILE A   5       9.152 -10.180   6.371  0.00  0.00    +0.002 C 
BRANCH 147 149
ATOM    149  CG1 ILE A   5       8.229 -11.396   4.397  0.00  0.00    +0.002 C 
ATOM    150  CD1 ILE A   5       6.894 -11.008   5.029  0.00  0.00    +0.000 C 
ENDBRANCH 147 149
ENDBRANCH 104 147
ENDBRANCH 100 104
ENDBRANCH  99 101
BRANCH  99 151
ATOM    151  CB  PHE A   6      14.001 -12.957   7.461  0.00  0.00    +0.055 C 
BRANCH 151 152
ATOM    152  CG  PHE A   6      15.223 -12.963   8.348  0.00  0.00    -0.020 A 
ATOM    153  CD2 PHE A   6      15.127 -13.255   9.700  0.00  0.00    -0.004 A 
ATOM    154  CE2 PHE A   6      16.270 -13.345  10.503  0.00  0.00    -0.000 A 
ATOM    155  CZ  PHE A   6      17.530 -13.137   9.940  0.00  0.00    -0.000 A 
ATOM    156  CE1 PHE A   6      17.638 -12.836   8.585  0.00  0.00    -0.000 A 
ATOM    157  CD1 PHE A   6      16.491 -12.749   7.793  0.00  0.00    -0.004 A 
ENDBRANCH 151 152
ENDBRANCH  99 151
ENDBRANCH  95  99
ENDBRANCH  94  97
BRANCH  94 158
ATOM    158  CB  GLN A   7      16.607 -10.723   3.326  0.00  0.00    +0.039 C 
BRANCH 158 159
ATOM    159  CG  GLN A   7      15.606 -11.411   2.425  0.00  0.00    +0.087 C 
BRANCH 159 160
ATOM    160  CD  GLN A   7      16.266 -12.020   1.189  0.00  0.00    +0.219 C 
ATOM    161  NE2 GLN A   7      16.532 -13.320   1.238  0.00  0.00    -0.329 N 
ATOM    162 HE21 GLN A   7      16.281 -13.871   2.084  0.00  0.00    +0.145 HD
ATOM    163 HE22 GLN A   7      16.991 -13.788   0.431  0.00  0.00    +0.145 HD
ATOM    164  OE1 GLN A   7      16.543 -11.322   0.210  0.00  0.00    -0.275 OA
ENDBRANCH 159 160
ENDBRANCH 158 159
ENDBRANCH  94 158
ENDBRANCH  90  94
ENDBRANCH  89  92
ENDBRANCH  85  89
ENDBRANCH   1  86
BRANCH   1 165
ATOM    165  CB  CYS A   9      12.679  -6.801   8.350  0.00  0.00    +0.098 C 
ATOM    166  SG  CYS A   9      10.873  -6.941   8.160  0.00  0.00    -0.080 S 
ENDBRANCH   1 165
TORSDOF 65
REMARK  Name = ../refined-set-2016/1fm9/1fm9_pocket.pdb
REMARK  266 active torsions:
REMARK  status: ('A' for Active; 'I' for Inactive)
REMARK    1  A    between atoms: _1  and  _3
REMARK    2  A    between atoms: _3  and  _4
REMARK    3  A    between atoms: _3  and  _6
REMARK    4  A    between atoms: _6  and  _7
REMARK    5  A    between atoms: _10  and  _12
REMARK    6  A    between atoms: _12  and  _13
REMARK    7  A    between atoms: _12  and  _15
REMARK    8  A    between atoms: _15  and  _16
REMARK    9  A    between atoms: _19  and  _21
REMARK   10  A    between atoms: _21  and  _22
REMARK   11  A    between atoms: _24  and  _26
REMARK   12  A    between atoms: _26  and  _27
REMARK   13  A    between atoms: _26  and  _29
REMARK   14  A    between atoms: _29  and  _30
REMARK   15  A    between atoms: _30  and  _31
REMARK   16  A    between atoms: _34  and  _36
REMARK   17  A    between atoms: _36  and  _37
REMARK   18  A    between atoms: _36  and  _39
REMARK   19  A    between atoms: _39  and  _40
REMARK   20  A    between atoms: _44  and  _45
REMARK   21  A    between atoms: _50  and  _52
REMARK   22  A    between atoms: _52  and  _53
REMARK   23  A    between atoms: _52  and  _55
REMARK   24  A    between atoms: _55  and  _56
REMARK   25  A    between atoms: _59  and  _61
REMARK   26  A    between atoms: _61  and  _62
REMARK   27  A    between atoms: _61  and  _64
REMARK   28  A    between atoms: _67  and  _69
REMARK   29  A    between atoms: _69  and  _70
REMARK   30  A    between atoms: _73  and  _75
REMARK   31  A    between atoms: _75  and  _76
REMARK   32  A    between atoms: _75  and  _78
REMARK   33  A    between atoms: _78  and  _79
REMARK   34  A    between atoms: _82  and  _84
REMARK   35  A    between atoms: _84  and  _85
REMARK   36  A    between atoms: _84  and  _87
REMARK   37  A    between atoms: _87  and  _88
REMARK   38  A    between atoms: _88  and  _89
REMARK   39  A    between atoms: _89  and  _90
REMARK   40  A    between atoms: _99  and  _101
REMARK   41  A    between atoms: _101  and  _102
REMARK   42  A    between atoms: _101  and  _104
REMARK   43  A    between atoms: _104  and  _105
REMARK   44  A    between atoms: _108  and  _110
REMARK   45  A    between atoms: _110  and  _111
REMARK   46  A    between atoms: _110  and  _113
REMARK   47  A    between atoms: _113  and  _114
REMARK   48  A    between atoms: _120  and  _122
REMARK   49  A    between atoms: _122  and  _123
REMARK   50  A    between atoms: _122  and  _125
REMARK   51  A    between atoms: _125  and  _126
REMARK   52  A    between atoms: _126  and  _127
REMARK   53  A    between atoms: _132  and  _134
REMARK   54  A    between atoms: _134  and  _135
REMARK   55  A    between atoms: _137  and  _139
REMARK   56  A    between atoms: _139  and  _140
REMARK   57  A    between atoms: _139  and  _142
REMARK   58  A    between atoms: _144  and  _146
REMARK   59  A    between atoms: _146  and  _147
REMARK   60  A    between atoms: _146  and  _149
REMARK   61  A    between atoms: _149  and  _150
REMARK   62  A    between atoms: _150  and  _151
REMARK   63  A    between atoms: _156  and  _158
REMARK   64  A    between atoms: _158  and  _159
REMARK   65  A    between atoms: _158  and  _161
REMARK   66  A    between atoms: _161  and  _162
REMARK   67  A    between atoms: _168  and  _170
REMARK   68  A    between atoms: _170  and  _171
REMARK   69  A    between atoms: _170  and  _173
REMARK   70  A    between atoms: _173  and  _174
REMARK   71  A    between atoms: _174  and  _175
REMARK   72  A    between atoms: _175  and  _176
REMARK   73  A    between atoms: _185  and  _187
REMARK   74  A    between atoms: _187  and  _188
REMARK   75  A    between atoms: _187  and  _190
REMARK   76  A    between atoms: _190  and  _191
REMARK   77  A    between atoms: _193  and  _195
REMARK   78  A    between atoms: _195  and  _196
REMARK   79  A    between atoms: _195  and  _198
REMARK   80  A    between atoms: _201  and  _203
REMARK   81  A    between atoms: _203  and  _204
REMARK   82  A    between atoms: _203  and  _206
REMARK   83  A    between atoms: _206  and  _207
REMARK   84  A    between atoms: _207  and  _208
REMARK   85  A    between atoms: _211  and  _213
REMARK   86  A    between atoms: _213  and  _214
REMARK   87  A    between atoms: _217  and  _219
REMARK   88  A    between atoms: _219  and  _220
REMARK   89  A    between atoms: _219  and  _222
REMARK   90  A    between atoms: _225  and  _227
REMARK   91  A    between atoms: _227  and  _228
REMARK   92  A    between atoms: _227  and  _230
REMARK   93  A    between atoms: _233  and  _235
REMARK   94  A    between atoms: _235  and  _236
REMARK   95  A    between atoms: _235  and  _238
REMARK   96  A    between atoms: _238  and  _239
REMARK   97  A    between atoms: _244  and  _246
REMARK   98  A    between atoms: _246  and  _247
REMARK   99  A    between atoms: _246  and  _249
REMARK  100  A    between atoms: _249  and  _250
REMARK  101  A    between atoms: _253  and  _255
REMARK  102  A    between atoms: _255  and  _256
REMARK  103  A    between atoms: _255  and  _258
REMARK  104  A    between atoms: _258  and  _259
REMARK  105  A    between atoms: _264  and  _265
REMARK  106  A    between atoms: _267  and  _269
REMARK  107  A    between atoms: _269  and  _270
REMARK  108  A    between atoms: _269  and  _272
REMARK  109  A    between atoms: _272  and  _273
REMARK  110  A    between atoms: _276  and  _278
REMARK  111  A    between atoms: _278  and  _279
REMARK  112  A    between atoms: _278  and  _281
REMARK  113  A    between atoms: _281  and  _282
REMARK  114  A    between atoms: _285  and  _287
REMARK  115  A    between atoms: _287  and  _288
REMARK  116  A    between atoms: _287  and  _290
REMARK  117  A    between atoms: _290  and  _291
REMARK  118  A    between atoms: _291  and  _292
REMARK  119  A    between atoms: _294  and  _296
REMARK  120  A    between atoms: _296  and  _297
REMARK  121  A    between atoms: _296  and  _299
REMARK  122  A    between atoms: _302  and  _304
REMARK  123  A    between atoms: _304  and  _305
REMARK  124  A    between atoms: _304  and  _307
REMARK  125  A    between atoms: _307  and  _308
REMARK  126  A    between atoms: _311  and  _313
REMARK  127  A    between atoms: _313  and  _314
REMARK  128  A    between atoms: _313  and  _316
REMARK  129  A    between atoms: _316  and  _317
REMARK  130  A    between atoms: _320  and  _322
REMARK  131  A    between atoms: _322  and  _323
REMARK  132  A    between atoms: _322  and  _325
REMARK  133  A    between atoms: _325  and  _326
REMARK  134  A    between atoms: _328  and  _330
REMARK  135  A    between atoms: _330  and  _331
REMARK  136  A    between atoms: _330  and  _333
REMARK  137  A    between atoms: _333  and  _334
REMARK  138  A    between atoms: _334  and  _335
REMARK  139  A    between atoms: _338  and  _340
REMARK  140  A    between atoms: _340  and  _341
REMARK  141  A    between atoms: _343  and  _345
REMARK  142  A    between atoms: _345  and  _346
REMARK  143  A    between atoms: _348  and  _350
REMARK  144  A    between atoms: _350  and  _351
REMARK  145  A    between atoms: _350  and  _353
REMARK  146  A    between atoms: _353  and  _354
REMARK  147  A    between atoms: _354  and  _355
REMARK  148  A    between atoms: _357  and  _359
REMARK  149  A    between atoms: _359  and  _360
REMARK  150  A    between atoms: _359  and  _362
REMARK  151  A    between atoms: _362  and  _363
REMARK  152  A    between atoms: _366  and  _368
REMARK  153  A    between atoms: _368  and  _369
REMARK  154  A    between atoms: _368  and  _371
REMARK  155  A    between atoms: _371  and  _372
REMARK  156  A    between atoms: _378  and  _380
REMARK  157  A    between atoms: _380  and  _381
REMARK  158  A    between atoms: _380  and  _383
REMARK  159  A    between atoms: _383  and  _384
REMARK  160  A    between atoms: _387  and  _389
REMARK  161  A    between atoms: _389  and  _390
REMARK  162  A    between atoms: _389  and  _392
REMARK  163  A    between atoms: _392  and  _393
REMARK  164  A    between atoms: _396  and  _398
REMARK  165  A    between atoms: _398  and  _399
REMARK  166  A    between atoms: _398  and  _401
REMARK  167  A    between atoms: _401  and  _402
REMARK  168  A    between atoms: _402  and  _403
REMARK  169  A    between atoms: _403  and  _404
REMARK  170  A    between atoms: _414  and  _415
REMARK  171  A    between atoms: _420  and  _422
REMARK  172  A    between atoms: _422  and  _423
REMARK  173  A    between atoms: _422  and  _425
REMARK  174  A    between atoms: _425  and  _426
REMARK  175  A    between atoms: _432  and  _434
REMARK  176  A    between atoms: _434  and  _435
REMARK  177  A    between atoms: _437  and  _439
REMARK  178  A    between atoms: _439  and  _440
REMARK  179  A    between atoms: _439  and  _442
REMARK  180  A    between atoms: _442  and  _443
REMARK  181  A    between atoms: _446  and  _448
REMARK  182  A    between atoms: _448  and  _449
REMARK  183  A    between atoms: _448  and  _451
REMARK  184  A    between atoms: _451  and  _452
REMARK  185  A    between atoms: _458  and  _460
REMARK  186  A    between atoms: _460  and  _461
REMARK  187  A    between atoms: _460  and  _463
REMARK  188  A    between atoms: _463  and  _464
REMARK  189  A    between atoms: _464  and  _465
REMARK  190  A    between atoms: _467  and  _469
REMARK  191  A    between atoms: _469  and  _470
REMARK  192  A    between atoms: _469  and  _472
REMARK  193  A    between atoms: _472  and  _473
REMARK  194  A    between atoms: _473  and  _474
REMARK  195  A    between atoms: _477  and  _479
REMARK  196  A    between atoms: _479  and  _480
REMARK  197  A    between atoms: _479  and  _482
REMARK  198  A    between atoms: _482  and  _483
REMARK  199  A    between atoms: _483  and  _484
REMARK  200  A    between atoms: _484  and  _485
REMARK  201  A    between atoms: _485  and  _486
REMARK  202  A    between atoms: _490  and  _492
REMARK  203  A    between atoms: _492  and  _493
REMARK  204  A    between atoms: _492  and  _495
REMARK  205  A    between atoms: _495  and  _496
REMARK  206  A    between atoms: _502  and  _504
REMARK  207  A    between atoms: _504  and  _505
REMARK  208  A    between atoms: _504  and  _507
REMARK  209  A    between atoms: _510  and  _512
REMARK  210  A    between atoms: _512  and  _513
REMARK  211  A    between atoms: _512  and  _515
REMARK  212  A    between atoms: _515  and  _516
REMARK  213  A    between atoms: _521  and  _523
REMARK  214  A    between atoms: _523  and  _524
REMARK  215  A    between atoms: _523  and  _526
REMARK  216  A    between atoms: _529  and  _531
REMARK  217  A    between atoms: _531  and  _532
REMARK  218  A    between atoms: _531  and  _534
REMARK  219  A    between atoms: _534  and  _535
REMARK  220  A    between atoms: _538  and  _540
REMARK  221  A    between atoms: _540  and  _541
REMARK  222  A    between atoms: _540  and  _543
REMARK  223  A    between atoms: _543  and  _544
REMARK  224  A    between atoms: _547  and  _549
REMARK  225  A    between atoms: _549  and  _550
REMARK  226  A    between atoms: _549  and  _552
REMARK  227  A    between atoms: _552  and  _553
REMARK  228  A    between atoms: _556  and  _558
REMARK  229  A    between atoms: _558  and  _559
REMARK  230  A    between atoms: _558  and  _561
REMARK  231  A    between atoms: _561  and  _562
REMARK  232  A    between atoms: _562  and  _563
REMARK  233  A    between atoms: _565  and  _567
REMARK  234  A    between atoms: _567  and  _568
REMARK  235  A    between atoms: _567  and  _570
REMARK  236  A    between atoms: _570  and  _571
REMARK  237  A    between atoms: _573  and  _575
REMARK  238  A    between atoms: _575  and  _576
REMARK  239  A    between atoms: _575  and  _578
REMARK  240  A    between atoms: _578  and  _579
REMARK  241  A    between atoms: _582  and  _584
REMARK  242  A    between atoms: _584  and  _585
REMARK  243  A    between atoms: _584  and  _587
REMARK  244  A    between atoms: _587  and  _588
REMARK  245  A    between atoms: _593  and  _595
REMARK  246  A    between atoms: _595  and  _596
REMARK  247  A    between atoms: _595  and  _598
REMARK  248  A    between atoms: _598  and  _599
REMARK  249  A    between atoms: _602  and  _604
REMARK  250  A    between atoms: _604  and  _605
REMARK  251  A    between atoms: _604  and  _607
REMARK  252  A    between atoms: _607  and  _608
REMARK  253  A    between atoms: _611  and  _613
REMARK  254  A    between atoms: _613  and  _614
REMARK  255  A    between atoms: _613  and  _616
REMARK  256  A    between atoms: _616  and  _617
REMARK  257  A    between atoms: _617  and  _618
REMARK  258  A    between atoms: _623  and  _625
REMARK  259  A    between atoms: _625  and  _626
REMARK  260  A    between atoms: _625  and  _628
REMARK  261  A    between atoms: _628  and  _629
REMARK  262  A    between atoms: _632  and  _634
REMARK  263  A    between atoms: _634  and  _635
REMARK  264  A    between atoms: _634  and  _637
REMARK  265  A    between atoms: _637  and  _638
REMARK  266  A    between atoms: _643  and  _644
REMARK                            x       y       z     vdW  Elec       q    Type
REMARK                         _______ _______ _______ _____ _____    ______ ____
ROOT
ATOM      1  C   VAL A   1      17.072   1.942  17.266  0.00  0.00    +0.238 C 
ATOM      2  N   HIS A   2      16.913   0.800  17.929  0.00  0.00    -0.298 N 
ATOM      3  H   HIS A   2      17.638   0.468  18.597  0.00  0.00    +0.150 HD
ATOM      4  O   VAL A   1      16.227   2.364  16.485  0.00  0.00    -0.274 OA
ENDROOT
BRANCH   1   5
ATOM      5  CA  VAL A   1      18.358   2.749  17.508  0.00  0.00    +0.145 C 
BRANCH   5   6
ATOM      6  CB  VAL A   1      19.565   2.072  16.809  0.00  0.00    +0.025 C 
ATOM      7  CG2 VAL A   1      20.505   3.151  16.311  0.00  0.00    +0.002 C 
ATOM      8  CG1 VAL A   1      19.108   1.233  15.660  0.00  0.00    +0.002 C 
ENDBRANCH   5   6
BRANCH   5   9
ATOM      9  N   VAL A   1      18.732   3.070  18.873  0.00  0.00    -0.238 NA
ATOM     10  H   VAL A   1      19.691   2.834  19.200  0.00  0.00    +0.142 HD
ENDBRANCH   5   9
ENDBRANCH   1   5
BRANCH   2  11
ATOM     11  CA  HIS A   2      15.704   0.026  17.700  0.00  0.00    +0.143 C 
BRANCH  11  12
ATOM     12  C   HIS A   2      14.460   0.713  18.238  0.00  0.00    +0.227 C 
ATOM     13  O   HIS A   2      13.397   0.648  17.623  0.00  0.00    -0.286 OA
ENDBRANCH  11  12
BRANCH  11  14
ATOM     14  CB  HIS A   2      15.846  -1.396  18.259  0.00  0.00    +0.075 C 
BRANCH  14  15
ATOM     15  CG  HIS A   2      16.723  -2.273  17.416  0.00  0.00    +0.082 A 
ATOM     16  ND1 HIS A   2      18.089  -2.360  17.594  0.00  0.00    -0.227 NA
ATOM     17  CE1 HIS A   2      18.605  -3.134  16.655  0.00  0.00    +0.199 A 
ATOM     18  NE2 HIS A   2      17.624  -3.555  15.876  0.00  0.00    -0.221 NA
ATOM     19  CD2 HIS A   2      16.437  -3.033  16.332  0.00  0.00    +0.115 A 
ENDBRANCH  14  15
ENDBRANCH  11  14
ENDBRANCH   2  11
TORSDOF 7
REMARK  Name = ../refined-set-2016/1fm9/1fm9_pocket.pdb
REMARK  266 active torsions:
REMARK  status: ('A' for Active; 'I' for Inactive)
REMARK    1  A    between atoms: _1  and  _3
REMARK    2  A    between atoms: _3  and  _4
REMARK    3  A    between atoms: _3  and  _6
REMARK    4  A    between atoms: _6  and  _7
REMARK    5  A    between atoms: _10  and  _12
REMARK    6  A    between atoms: _12  and  _13
REMARK    7  A    between atoms: _12  and  _15
REMARK    8  A    between atoms: _15  and  _16
REMARK    9  A    between atoms: _19  and  _21
REMARK   10  A    between atoms: _21  and  _22
REMARK   11  A    between atoms: _24  and  _26
REMARK   12  A    between atoms: _26  and  _27
REMARK   13  A    between atoms: _26  and  _29
REMARK   14  A    between atoms: _29  and  _30
REMARK   15  A    between atoms: _30  and  _31
REMARK   16  A    between atoms: _34  and  _36
REMARK   17  A    between atoms: _36  and  _37
REMARK   18  A    between atoms: _36  and  _39
REMARK   19  A    between atoms: _39  and  _40
REMARK   20  A    between atoms: _44  and  _45
REMARK   21  A    between atoms: _50  and  _52
REMARK   22  A    between atoms: _52  and  _53
REMARK   23  A    between atoms: _52  and  _55
REMARK   24  A    between atoms: _55  and  _56
REMARK   25  A    between atoms: _59  and  _61
REMARK   26  A    between atoms: _61  and  _62
REMARK   27  A    between atoms: _61  and  _64
REMARK   28  A    between atoms: _67  and  _69
REMARK   29  A    between atoms: _69  and  _70
REMARK   30  A    between atoms: _73  and  _75
REMARK   31  A    between atoms: _75  and  _76
REMARK   32  A    between atoms: _75  and  _78
REMARK   33  A    between atoms: _78  and  _79
REMARK   34  A    between atoms: _82  and  _84
REMARK   35  A    between atoms: _84  and  _85
REMARK   36  A    between atoms: _84  and  _87
REMARK   37  A    between atoms: _87  and  _88
REMARK   38  A    between atoms: _88  and  _89
REMARK   39  A    between atoms: _89  and  _90
REMARK   40  A    between atoms: _99  and  _101
REMARK   41  A    between atoms: _101  and  _102
REMARK   42  A    between atoms: _101  and  _104
REMARK   43  A    between atoms: _104  and  _105
REMARK   44  A    between atoms: _108  and  _110
REMARK   45  A    between atoms: _110  and  _111
REMARK   46  A    between atoms: _110  and  _113
REMARK   47  A    between atoms: _113  and  _114
REMARK   48  A    between atoms: _120  and  _122
REMARK   49  A    between atoms: _122  and  _123
REMARK   50  A    between atoms: _122  and  _125
REMARK   51  A    between atoms: _125  and  _126
REMARK   52  A    between atoms: _126  and  _127
REMARK   53  A    between atoms: _132  and  _134
REMARK   54  A    between atoms: _134  and  _135
REMARK   55  A    between atoms: _137  and  _139
REMARK   56  A    between atoms: _139  and  _140
REMARK   57  A    between atoms: _139  and  _142
REMARK   58  A    between atoms: _144  and  _146
REMARK   59  A    between atoms: _146  and  _147
REMARK   60  A    between atoms: _146  and  _149
REMARK   61  A    between atoms: _149  and  _150
REMARK   62  A    between atoms: _150  and  _151
REMARK   63  A    between atoms: _156  and  _158
REMARK   64  A    between atoms: _158  and  _159
REMARK   65  A    between atoms: _158  and  _161
REMARK   66  A    between atoms: _161  and  _162
REMARK   67  A    between atoms: _168  and  _170
REMARK   68  A    between atoms: _170  and  _171
REMARK   69  A    between atoms: _170  and  _173
REMARK   70  A    between atoms: _173  and  _174
REMARK   71  A    between atoms: _174  and  _175
REMARK   72  A    between atoms: _175  and  _176
REMARK   73  A    between atoms: _185  and  _187
REMARK   74  A    between atoms: _187  and  _188
REMARK   75  A    between atoms: _187  and  _190
REMARK   76  A    between atoms: _190  and  _191
REMARK   77  A    between atoms: _193  and  _195
REMARK   78  A    between atoms: _195  and  _196
REMARK   79  A    between atoms: _195  and  _198
REMARK   80  A    between atoms: _201  and  _203
REMARK   81  A    between atoms: _203  and  _204
REMARK   82  A    between atoms: _203  and  _206
REMARK   83  A    between atoms: _206  and  _207
REMARK   84  A    between atoms: _207  and  _208
REMARK   85  A    between atoms: _211  and  _213
REMARK   86  A    between atoms: _213  and  _214
REMARK   87  A    between atoms: _217  and  _219
REMARK   88  A    between atoms: _219  and  _220
REMARK   89  A    between atoms: _219  and  _222
REMARK   90  A    between atoms: _225  and  _227
REMARK   91  A    between atoms: _227  and  _228
REMARK   92  A    between atoms: _227  and  _230
REMARK   93  A    between atoms: _233  and  _235
REMARK   94  A    between atoms: _235  and  _236
REMARK   95  A    between atoms: _235  and  _238
REMARK   96  A    between atoms: _238  and  _239
REMARK   97  A    between atoms: _244  and  _246
REMARK   98  A    between atoms: _246  and  _247
REMARK   99  A    between atoms: _246  and  _249
REMARK  100  A    between atoms: _249  and  _250
REMARK  101  A    between atoms: _253  and  _255
REMARK  102  A    between atoms: _255  and  _256
REMARK  103  A    between atoms: _255  and  _258
REMARK  104  A    between atoms: _258  and  _259
REMARK  105  A    between atoms: _264  and  _265
REMARK  106  A    between atoms: _267  and  _269
REMARK  107  A    between atoms: _269  and  _270
REMARK  108  A    between atoms: _269  and  _272
REMARK  109  A    between atoms: _272  and  _273
REMARK  110  A    between atoms: _276  and  _278
REMARK  111  A    between atoms: _278  and  _279
REMARK  112  A    between atoms: _278  and  _281
REMARK  113  A    between atoms: _281  and  _282
REMARK  114  A    between atoms: _285  and  _287
REMARK  115  A    between atoms: _287  and  _288
REMARK  116  A    between atoms: _287  and  _290
REMARK  117  A    between atoms: _290  and  _291
REMARK  118  A    between atoms: _291  and  _292
REMARK  119  A    between atoms: _294  and  _296
REMARK  120  A    between atoms: _296  and  _297
REMARK  121  A    between atoms: _296  and  _299
REMARK  122  A    between atoms: _302  and  _304
REMARK  123  A    between atoms: _304  and  _305
REMARK  124  A    between atoms: _304  and  _307
REMARK  125  A    between atoms: _307  and  _308
REMARK  126  A    between atoms: _311  and  _313
REMARK  127  A    between atoms: _313  and  _314
REMARK  128  A    between atoms: _313  and  _316
REMARK  129  A    between atoms: _316  and  _317
REMARK  130  A    between atoms: _320  and  _322
REMARK  131  A    between atoms: _322  and  _323
REMARK  132  A    between atoms: _322  and  _325
REMARK  133  A    between atoms: _325  and  _326
REMARK  134  A    between atoms: _328  and  _330
REMARK  135  A    between atoms: _330  and  _331
REMARK  136  A    between atoms: _330  and  _333
REMARK  137  A    between atoms: _333  and  _334
REMARK  138  A    between atoms: _334  and  _335
REMARK  139  A    between atoms: _338  and  _340
REMARK  140  A    between atoms: _340  and  _341
REMARK  141  A    between atoms: _343  and  _345
REMARK  142  A    between atoms: _345  and  _346
REMARK  143  A    between atoms: _348  and  _350
REMARK  144  A    between atoms: _350  and  _351
REMARK  145  A    between atoms: _350  and  _353
REMARK  146  A    between atoms: _353  and  _354
REMARK  147  A    between atoms: _354  and  _355
REMARK  148  A    between atoms: _357  and  _359
REMARK  149  A    between atoms: _359  and  _360
REMARK  150  A    between atoms: _359  and  _362
REMARK  151  A    between atoms: _362  and  _363
REMARK  152  A    between atoms: _366  and  _368
REMARK  153  A    between atoms: _368  and  _369
REMARK  154  A    between atoms: _368  and  _371
REMARK  155  A    between atoms: _371  and  _372
REMARK  156  A    between atoms: _378  and  _380
REMARK  157  A    between atoms: _380  and  _381
REMARK  158  A    between atoms: _380  and  _383
REMARK  159  A    between atoms: _383  and  _384
REMARK  160  A    between atoms: _387  and  _389
REMARK  161  A    between atoms: _389  and  _390
REMARK  162  A    between atoms: _389  and  _392
REMARK  163  A    between atoms: _392  and  _393
REMARK  164  A    between atoms: _396  and  _398
REMARK  165  A    between atoms: _398  and  _399
REMARK  166  A    between atoms: _398  and  _401
REMARK  167  A    between atoms: _401  and  _402
REMARK  168  A    between atoms: _402  and  _403
REMARK  169  A    between atoms: _403  and  _404
REMARK  170  A    between atoms: _414  and  _415
REMARK  171  A    between atoms: _420  and  _422
REMARK  172  A    between atoms: _422  and  _423
REMARK  173  A    between atoms: _422  and  _425
REMARK  174  A    between atoms: _425  and  _426
REMARK  175  A    between atoms: _432  and  _434
REMARK  176  A    between atoms: _434  and  _435
REMARK  177  A    between atoms: _437  and  _439
REMARK  178  A    between atoms: _439  and  _440
REMARK  179  A    between atoms: _439  and  _442
REMARK  180  A    between atoms: _442  and  _443
REMARK  181  A    between atoms: _446  and  _448
REMARK  182  A    between atoms: _448  and  _449
REMARK  183  A    between atoms: _448  and  _451
REMARK  184  A    between atoms: _451  and  _452
REMARK  185  A    between atoms: _458  and  _460
REMARK  186  A    between atoms: _460  and  _461
REMARK  187  A    between atoms: _460  and  _463
REMARK  188  A    between atoms: _463  and  _464
REMARK  189  A    between atoms: _464  and  _465
REMARK  190  A    between atoms: _467  and  _469
REMARK  191  A    between atoms: _469  and  _470
REMARK  192  A    between atoms: _469  and  _472
REMARK  193  A    between atoms: _472  and  _473
REMARK  194  A    between atoms: _473  and  _474
REMARK  195  A    between atoms: _477  and  _479
REMARK  196  A    between atoms: _479  and  _480
REMARK  197  A    between atoms: _479  and  _482
REMARK  198  A    between atoms: _482  and  _483
REMARK  199  A    between atoms: _483  and  _484
REMARK  200  A    between atoms: _484  and  _485
REMARK  201  A    between atoms: _485  and  _486
REMARK  202  A    between atoms: _490  and  _492
REMARK  203  A    between atoms: _492  and  _493
REMARK  204  A    between atoms: _492  and  _495
REMARK  205  A    between atoms: _495  and  _496
REMARK  206  A    between atoms: _502  and  _504
REMARK  207  A    between atoms: _504  and  _505
REMARK  208  A    between atoms: _504  and  _507
REMARK  209  A    between atoms: _510  and  _512
REMARK  210  A    between atoms: _512  and  _513
REMARK  211  A    between atoms: _512  and  _515
REMARK  212  A    between atoms: _515  and  _516
REMARK  213  A    between atoms: _521  and  _523
REMARK  214  A    between atoms: _523  and  _524
REMARK  215  A    between atoms: _523  and  _526
REMARK  216  A    between atoms: _529  and  _531
REMARK  217  A    between atoms: _531  and  _532
REMARK  218  A    between atoms: _531  and  _534
REMARK  219  A    between atoms: _534  and  _535
REMARK  220  A    between atoms: _538  and  _540
REMARK  221  A    between atoms: _540  and  _541
REMARK  222  A    between atoms: _540  and  _543
REMARK  223  A    between atoms: _543  and  _544
REMARK  224  A    between atoms: _547  and  _549
REMARK  225  A    between atoms: _549  and  _550
REMARK  226  A    between atoms: _549  and  _552
REMARK  227  A    between atoms: _552  and  _553
REMARK  228  A    between atoms: _556  and  _558
REMARK  229  A    between atoms: _558  and  _559
REMARK  230  A    between atoms: _558  and  _561
REMARK  231  A    between atoms: _561  and  _562
REMARK  232  A    between atoms: _562  and  _563
REMARK  233  A    between atoms: _565  and  _567
REMARK  234  A    between atoms: _567  and  _568
REMARK  235  A    between atoms: _567  and  _570
REMARK  236  A    between atoms: _570  and  _571
REMARK  237  A    between atoms: _573  and  _575
REMARK  238  A    between atoms: _575  and  _576
REMARK  239  A    between atoms: _575  and  _578
REMARK  240  A    between atoms: _578  and  _579
REMARK  241  A    between atoms: _582  and  _584
REMARK  242  A    between atoms: _584  and  _585
REMARK  243  A    between atoms: _584  and  _587
REMARK  244  A    between atoms: _587  and  _588
REMARK  245  A    between atoms: _593  and  _595
REMARK  246  A    between atoms: _595  and  _596
REMARK  247  A    between atoms: _595  and  _598
REMARK  248  A    between atoms: _598  and  _599
REMARK  249  A    between atoms: _602  and  _604
REMARK  250  A    between atoms: _604  and  _605
REMARK  251  A    between atoms: _604  and  _607
REMARK  252  A    between atoms: _607  and  _608
REMARK  253  A    between atoms: _611  and  _613
REMARK  254  A    between atoms: _613  and  _614
REMARK  255  A    between atoms: _613  and  _616
REMARK  256  A    between atoms: _616  and  _617
REMARK  257  A    between atoms: _617  and  _618
REMARK  258  A    between atoms: _623  and  _625
REMARK  259  A    between atoms: _625  and  _626
REMARK  260  A    between atoms: _625  and  _628
REMARK  261  A    between atoms: _628  and  _629
REMARK  262  A    between atoms: _632  and  _634
REMARK  263  A    between atoms: _634  and  _635
REMARK  264  A    between atoms: _634  and  _637
REMARK  265  A    between atoms: _637  and  _638
REMARK  266  A    between atoms: _643  and  _644
REMARK                            x       y       z     vdW  Elec       q    Type
REMARK                         _______ _______ _______ _____ _____    ______ ____
ROOT
ATOM      1  CA  TYR A   2       9.886   1.073  15.949  0.00  0.00    +0.141 C 
ENDROOT
BRANCH   1   3
ATOM      2  C   ILE A   1      11.640   1.925  14.510  0.00  0.00    +0.238 C 
ATOM      3  N   TYR A   2      11.273   1.459  15.701  0.00  0.00    -0.298 N 
ATOM      4  H   TYR A   2      11.978   1.369  16.460  0.00  0.00    +0.150 HD
ATOM      5  O   ILE A   1      10.846   2.076  13.582  0.00  0.00    -0.274 OA
BRANCH   2   6
ATOM      6  CA  ILE A   1      13.123   2.290  14.337  0.00  0.00    +0.145 C 
BRANCH   6   7
ATOM      7  N   ILE A   1      13.619   2.970  15.531  0.00  0.00    -0.238 NA
ATOM      8  H   ILE A   1      14.404   2.561  16.077  0.00  0.00    +0.142 HD
ENDBRANCH   6   7
BRANCH   6   9
ATOM      9  CB  ILE A   1      13.934   0.996  14.047  0.00  0.00    +0.025 C 
ATOM     10  CG2 ILE A   1      13.128   0.049  13.143  0.00  0.00    +0.002 C 
BRANCH   9  11
ATOM     11  CG1 ILE A   1      15.277   1.362  13.408  0.00  0.00    +0.002 C 
ATOM     12  CD1 ILE A   1      16.328   0.230  13.452  0.00  0.00    +0.000 C 
ENDBRANCH   9  11
ENDBRANCH   6   9
ENDBRANCH   2   6
ENDBRANCH   1   3
BRANCH   1  13
ATOM     13  C   TYR A   2       8.955   2.271  16.104  0.00  0.00    +0.227 C 
ATOM     14  O   TYR A   2       7.775   2.189  15.786  0.00  0.00    -0.286 OA
ENDBRANCH   1  13
BRANCH   1  15
ATOM     15  CB  TYR A   2       9.790   0.166  17.187  0.00  0.00    +0.054 C 
BRANCH  15  16
ATOM     16  CG  TYR A   2      10.603  -1.106  17.023  0.00  0.00    -0.020 A 
ATOM     17  CD2 TYR A   2      11.313  -1.653  18.085  0.00  0.00    -0.001 A 
ATOM     18  CE2 TYR A   2      12.117  -2.775  17.911  0.00  0.00    +0.036 A 
ATOM     19  CZ  TYR A   2      12.208  -3.352  16.663  0.00  0.00    +0.134 A 
ATOM     20  CE1 TYR A   2      11.507  -2.833  15.594  0.00  0.00    +0.036 A 
ATOM     21  CD1 TYR A   2      10.709  -1.721  15.777  0.00  0.00    -0.001 A 
BRANCH  19  22
ATOM     22  OH  TYR A   2      13.015  -4.438  16.478  0.00  0.00    -0.506 OA
ATOM     23  HH  TYR A   2      13.948  -4.196  16.703  0.00  0.00    +0.292 HD
ENDBRANCH  19  22
ENDBRANCH  15  16
ENDBRANCH   1  15
TORSDOF 9
REMARK  Name = ../refined-set-2016/1fm9/1fm9_pocket.pdb
REMARK  266 active torsions:
REMARK  status: ('A' for Active; 'I' for Inactive)
REMARK    1  A    between atoms: _1  and  _3
REMARK    2  A    between atoms: _3  and  _4
REMARK    3  A    between atoms: _3  and  _6
REMARK    4  A    between atoms: _6  and  _7
REMARK    5  A    between atoms: _10  and  _12
REMARK    6  A    between atoms: _12  and  _13
REMARK    7  A    between atoms: _12  and  _15
REMARK    8  A    between atoms: _15  and  _16
REMARK    9  A    between atoms: _19  and  _21
REMARK   10  A    between atoms: _21  and  _22
REMARK   11  A    between atoms: _24  and  _26
REMARK   12  A    between atoms: _26  and  _27
REMARK   13  A    between atoms: _26  and  _29
REMARK   14  A    between atoms: _29  and  _30
REMARK   15  A    between atoms: _30  and  _31
REMARK   16  A    between atoms: _34  and  _36
REMARK   17  A    between atoms: _36  and  _37
REMARK   18  A    between atoms: _36  and  _39
REMARK   19  A    between atoms: _39  and  _40
REMARK   20  A    between atoms: _44  and  _45
REMARK   21  A    between atoms: _50  and  _52
REMARK   22  A    between atoms: _52  and  _53
REMARK   23  A    between atoms: _52  and  _55
REMARK   24  A    between atoms: _55  and  _56
REMARK   25  A    between atoms: _59  and  _61
REMARK   26  A    between atoms: _61  and  _62
REMARK   27  A    between atoms: _61  and  _64
REMARK   28  A    between atoms: _67  and  _69
REMARK   29  A    between atoms: _69  and  _70
REMARK   30  A    between atoms: _73  and  _75
REMARK   31  A    between atoms: _75  and  _76
REMARK   32  A    between atoms: _75  and  _78
REMARK   33  A    between atoms: _78  and  _79
REMARK   34  A    between atoms: _82  and  _84
REMARK   35  A    between atoms: _84  and  _85
REMARK   36  A    between atoms: _84  and  _87
REMARK   37  A    between atoms: _87  and  _88
REMARK   38  A    between atoms: _88  and  _89
REMARK   39  A    between atoms: _89  and  _90
REMARK   40  A    between atoms: _99  and  _101
REMARK   41  A    between atoms: _101  and  _102
REMARK   42  A    between atoms: _101  and  _104
REMARK   43  A    between atoms: _104  and  _105
REMARK   44  A    between atoms: _108  and  _110
REMARK   45  A    between atoms: _110  and  _111
REMARK   46  A    between atoms: _110  and  _113
REMARK   47  A    between atoms: _113  and  _114
REMARK   48  A    between atoms: _120  and  _122
REMARK   49  A    between atoms: _122  and  _123
REMARK   50  A    between atoms: _122  and  _125
REMARK   51  A    between atoms: _125  and  _126
REMARK   52  A    between atoms: _126  and  _127
REMARK   53  A    between atoms: _132  and  _134
REMARK   54  A    between atoms: _134  and  _135
REMARK   55  A    between atoms: _137  and  _139
REMARK   56  A    between atoms: _139  and  _140
REMARK   57  A    between atoms: _139  and  _142
REMARK   58  A    between atoms: _144  and  _146
REMARK   59  A    between atoms: _146  and  _147
REMARK   60  A    between atoms: _146  and  _149
REMARK   61  A    between atoms: _149  and  _150
REMARK   62  A    between atoms: _150  and  _151
REMARK   63  A    between atoms: _156  and  _158
REMARK   64  A    between atoms: _158  and  _159
REMARK   65  A    between atoms: _158  and  _161
REMARK   66  A    between atoms: _161  and  _162
REMARK   67  A    between atoms: _168  and  _170
REMARK   68  A    between atoms: _170  and  _171
REMARK   69  A    between atoms: _170  and  _173
REMARK   70  A    between atoms: _173  and  _174
REMARK   71  A    between atoms: _174  and  _175
REMARK   72  A    between atoms: _175  and  _176
REMARK   73  A    between atoms: _185  and  _187
REMARK   74  A    between atoms: _187  and  _188
REMARK   75  A    between atoms: _187  and  _190
REMARK   76  A    between atoms: _190  and  _191
REMARK   77  A    between atoms: _193  and  _195
REMARK   78  A    between atoms: _195  and  _196
REMARK   79  A    between atoms: _195  and  _198
REMARK   80  A    between atoms: _201  and  _203
REMARK   81  A    between atoms: _203  and  _204
REMARK   82  A    between atoms: _203  and  _206
REMARK   83  A    between atoms: _206  and  _207
REMARK   84  A    between atoms: _207  and  _208
REMARK   85  A    between atoms: _211  and  _213
REMARK   86  A    between atoms: _213  and  _214
REMARK   87  A    between atoms: _217  and  _219
REMARK   88  A    between atoms: _219  and  _220
REMARK   89  A    between atoms: _219  and  _222
REMARK   90  A    between atoms: _225  and  _227
REMARK   91  A    between atoms: _227  and  _228
REMARK   92  A    between atoms: _227  and  _230
REMARK   93  A    between atoms: _233  and  _235
REMARK   94  A    between atoms: _235  and  _236
REMARK   95  A    between atoms: _235  and  _238
REMARK   96  A    between atoms: _238  and  _239
REMARK   97  A    between atoms: _244  and  _246
REMARK   98  A    between atoms: _246  and  _247
REMARK   99  A    between atoms: _246  and  _249
REMARK  100  A    between atoms: _249  and  _250
REMARK  101  A    between atoms: _253  and  _255
REMARK  102  A    between atoms: _255  and  _256
REMARK  103  A    between atoms: _255  and  _258
REMARK  104  A    between atoms: _258  and  _259
REMARK  105  A    between atoms: _264  and  _265
REMARK  106  A    between atoms: _267  and  _269
REMARK  107  A    between atoms: _269  and  _270
REMARK  108  A    between atoms: _269  and  _272
REMARK  109  A    between atoms: _272  and  _273
REMARK  110  A    between atoms: _276  and  _278
REMARK  111  A    between atoms: _278  and  _279
REMARK  112  A    between atoms: _278  and  _281
REMARK  113  A    between atoms: _281  and  _282
REMARK  114  A    between atoms: _285  and  _287
REMARK  115  A    between atoms: _287  and  _288
REMARK  116  A    between atoms: _287  and  _290
REMARK  117  A    between atoms: _290  and  _291
REMARK  118  A    between atoms: _291  and  _292
REMARK  119  A    between atoms: _294  and  _296
REMARK  120  A    between atoms: _296  and  _297
REMARK  121  A    between atoms: _296  and  _299
REMARK  122  A    between atoms: _302  and  _304
REMARK  123  A    between atoms: _304  and  _305
REMARK  124  A    between atoms: _304  and  _307
REMARK  125  A    between atoms: _307  and  _308
REMARK  126  A    between atoms: _311  and  _313
REMARK  127  A    between atoms: _313  and  _314
REMARK  128  A    between atoms: _313  and  _316
REMARK  129  A    between atoms: _316  and  _317
REMARK  130  A    between atoms: _320  and  _322
REMARK  131  A    between atoms: _322  and  _323
REMARK  132  A    between atoms: _322  and  _325
REMARK  133  A    between atoms: _325  and  _326
REMARK  134  A    between atoms: _328  and  _330
REMARK  135  A    between atoms: _330  and  _331
REMARK  136  A    between atoms: _330  and  _333
REMARK  137  A    between atoms: _333  and  _334
REMARK  138  A    between atoms: _334  and  _335
REMARK  139  A    between atoms: _338  and  _340
REMARK  140  A    between atoms: _340  and  _341
REMARK  141  A    between atoms: _343  and  _345
REMARK  142  A    between atoms: _345  and  _346
REMARK  143  A    between atoms: _348  and  _350
REMARK  144  A    between atoms: _350  and  _351
REMARK  145  A    between atoms: _350  and  _353
REMARK  146  A    between atoms: _353  and  _354
REMARK  147  A    between atoms: _354  and  _355
REMARK  148  A    between atoms: _357  and  _359
REMARK  149  A    between atoms: _359  and  _360
REMARK  150  A    between atoms: _359  and  _362
REMARK  151  A    between atoms: _362  and  _363
REMARK  152  A    between atoms: _366  and  _368
REMARK  153  A    between atoms: _368  and  _369
REMARK  154  A    between atoms: _368  and  _371
REMARK  155  A    between atoms: _371  and  _372
REMARK  156  A    between atoms: _378  and  _380
REMARK  157  A    between atoms: _380  and  _381
REMARK  158  A    between atoms: _380  and  _383
REMARK  159  A    between atoms: _383  and  _384
REMARK  160  A    between atoms: _387  and  _389
REMARK  161  A    between atoms: _389  and  _390
REMARK  162  A    between atoms: _389  and  _392
REMARK  163  A    between atoms: _392  and  _393
REMARK  164  A    between atoms: _396  and  _398
REMARK  165  A    between atoms: _398  and  _399
REMARK  166  A    between atoms: _398  and  _401
REMARK  167  A    between atoms: _401  and  _402
REMARK  168  A    between atoms: _402  and  _403
REMARK  169  A    between atoms: _403  and  _404
REMARK  170  A    between atoms: _414  and  _415
REMARK  171  A    between atoms: _420  and  _422
REMARK  172  A    between atoms: _422  and  _423
REMARK  173  A    between atoms: _422  and  _425
REMARK  174  A    between atoms: _425  and  _426
REMARK  175  A    between atoms: _432  and  _434
REMARK  176  A    between atoms: _434  and  _435
REMARK  177  A    between atoms: _437  and  _439
REMARK  178  A    between atoms: _439  and  _440
REMARK  179  A    between atoms: _439  and  _442
REMARK  180  A    between atoms: _442  and  _443
REMARK  181  A    between atoms: _446  and  _448
REMARK  182  A    between atoms: _448  and  _449
REMARK  183  A    between atoms: _448  and  _451
REMARK  184  A    between atoms: _451  and  _452
REMARK  185  A    between atoms: _458  and  _460
REMARK  186  A    between atoms: _460  and  _461
REMARK  187  A    between atoms: _460  and  _463
REMARK  188  A    between atoms: _463  and  _464
REMARK  189  A    between atoms: _464  and  _465
REMARK  190  A    between atoms: _467  and  _469
REMARK  191  A    between atoms: _469  and  _470
REMARK  192  A    between atoms: _469  and  _472
REMARK  193  A    between atoms: _472  and  _473
REMARK  194  A    between atoms: _473  and  _474
REMARK  195  A    between atoms: _477  and  _479
REMARK  196  A    between atoms: _479  and  _480
REMARK  197  A    between atoms: _479  and  _482
REMARK  198  A    between atoms: _482  and  _483
REMARK  199  A    between atoms: _483  and  _484
REMARK  200  A    between atoms: _484  and  _485
REMARK  201  A    between atoms: _485  and  _486
REMARK  202  A    between atoms: _490  and  _492
REMARK  203  A    between atoms: _492  and  _493
REMARK  204  A    between atoms: _492  and  _495
REMARK  205  A    between atoms: _495  and  _496
REMARK  206  A    between atoms: _502  and  _504
REMARK  207  A    between atoms: _504  and  _505
REMARK  208  A    between atoms: _504  and  _507
REMARK  209  A    between atoms: _510  and  _512
REMARK  210  A    between atoms: _512  and  _513
REMARK  211  A    between atoms: _512  and  _515
REMARK  212  A    between atoms: _515  and  _516
REMARK  213  A    between atoms: _521  and  _523
REMARK  214  A    between atoms: _523  and  _524
REMARK  215  A    between atoms: _523  and  _526
REMARK  216  A    between atoms: _529  and  _531
REMARK  217  A    between atoms: _531  and  _532
REMARK  218  A    between atoms: _531  and  _534
REMARK  219  A    between atoms: _534  and  _535
REMARK  220  A    between atoms: _538  and  _540
REMARK  221  A    between atoms: _540  and  _541
REMARK  222  A    between atoms: _540  and  _543
REMARK  223  A    between atoms: _543  and  _544
REMARK  224  A    between atoms: _547  and  _549
REMARK  225  A    between atoms: _549  and  _550
REMARK  226  A    between atoms: _549  and  _552
REMARK  227  A    between atoms: _552  and  _553
REMARK  228  A    between atoms: _556  and  _558
REMARK  229  A    between atoms: _558  and  _559
REMARK  230  A    between atoms: _558  and  _561
REMARK  231  A    between atoms: _561  and  _562
REMARK  232  A    between atoms: _562  and  _563
REMARK  233  A    between atoms: _565  and  _567
REMARK  234  A    between atoms: _567  and  _568
REMARK  235  A    between atoms: _567  and  _570
REMARK  236  A    between atoms: _570  and  _571
REMARK  237  A    between atoms: _573  and  _575
REMARK  238  A    between atoms: _575  and  _576
REMARK  239  A    between atoms: _575  and  _578
REMARK  240  A    between atoms: _578  and  _579
REMARK  241  A    between atoms: _582  and  _584
REMARK  242  A    between atoms: _584  and  _585
REMARK  243  A    between atoms: _584  and  _587
REMARK  244  A    between atoms: _587  and  _588
REMARK  245  A    between atoms: _593  and  _595
REMARK  246  A    between atoms: _595  and  _596
REMARK  247  A    between atoms: _595  and  _598
REMARK  248  A    between atoms: _598  and  _599
REMARK  249  A    between atoms: _602  and  _604
REMARK  250  A    between atoms: _604  and  _605
REMARK  251  A    between atoms: _604  and  _607
REMARK  252  A    between atoms: _607  and  _608
REMARK  253  A    between atoms: _611  and  _613
REMARK  254  A    between atoms: _613  and  _614
REMARK  255  A    between atoms: _613  and  _616
REMARK  256  A    between atoms: _616  and  _617
REMARK  257  A    between atoms: _617  and  _618
REMARK  258  A    between atoms: _623  and  _625
REMARK  259  A    between atoms: _625  and  _626
REMARK  260  A    between atoms: _625  and  _628
REMARK  261  A    between atoms: _628  and  _629
REMARK  262  A    between atoms: _632  and  _634
REMARK  263  A    between atoms: _634  and  _635
REMARK  264  A    between atoms: _634  and  _637
REMARK  265  A    between atoms: _637  and  _638
REMARK  266  A    between atoms: _643  and  _644
REMARK                            x       y       z     vdW  Elec       q    Type
REMARK                         _______ _______ _______ _____ _____    ______ ____
ROOT
ATOM      1  CA  LEU A   1       7.911   2.147  11.762  0.00  0.00    +0.133 C 
ENDROOT
BRANCH   1   2
ATOM      2  N   LEU A   1       8.593   3.205  12.499  0.00  0.00    -0.239 NA
ATOM      3  H   LEU A   1       9.232   2.949  13.278  0.00  0.00    +0.142 HD
ENDBRANCH   1   2
BRANCH   1   4
ATOM      4  C   LEU A   1       6.392   2.381  11.885  0.00  0.00    +0.224 C 
ATOM      5  O   LEU A   1       5.620   2.082  10.968  0.00  0.00    -0.287 OA
ENDBRANCH   1   4
BRANCH   1   6
ATOM      6  CB  LEU A   1       8.297   0.787  12.347  0.00  0.00    +0.025 C 
BRANCH   6   7
ATOM      7  CG  LEU A   1       7.713  -0.485  11.724  0.00  0.00    +0.002 C 
ATOM      8  CD2 LEU A   1       7.997  -1.698  12.613  0.00  0.00    +0.000 C 
ATOM      9  CD1 LEU A   1       8.320  -0.694  10.338  0.00  0.00    +0.000 C 
ENDBRANCH   6   7
ENDBRANCH   1   6
TORSDOF 4
REMARK  Name = ../refined-set-2016/1fm9/1fm9_pocket.pdb
REMARK  266 active torsions:
REMARK  status: ('A' for Active; 'I' for Inactive)
REMARK    1  A    between atoms: _1  and  _3
REMARK    2  A    between atoms: _3  and  _4
REMARK    3  A    between atoms: _3  and  _6
REMARK    4  A    between atoms: _6  and  _7
REMARK    5  A    between atoms: _10  and  _12
REMARK    6  A    between atoms: _12  and  _13
REMARK    7  A    between atoms: _12  and  _15
REMARK    8  A    between atoms: _15  and  _16
REMARK    9  A    between atoms: _19  and  _21
REMARK   10  A    between atoms: _21  and  _22
REMARK   11  A    between atoms: _24  and  _26
REMARK   12  A    between atoms: _26  and  _27
REMARK   13  A    between atoms: _26  and  _29
REMARK   14  A    between atoms: _29  and  _30
REMARK   15  A    between atoms: _30  and  _31
REMARK   16  A    between atoms: _34  and  _36
REMARK   17  A    between atoms: _36  and  _37
REMARK   18  A    between atoms: _36  and  _39
REMARK   19  A    between atoms: _39  and  _40
REMARK   20  A    between atoms: _44  and  _45
REMARK   21  A    between atoms: _50  and  _52
REMARK   22  A    between atoms: _52  and  _53
REMARK   23  A    between atoms: _52  and  _55
REMARK   24  A    between atoms: _55  and  _56
REMARK   25  A    between atoms: _59  and  _61
REMARK   26  A    between atoms: _61  and  _62
REMARK   27  A    between atoms: _61  and  _64
REMARK   28  A    between atoms: _67  and  _69
REMARK   29  A    between atoms: _69  and  _70
REMARK   30  A    between atoms: _73  and  _75
REMARK   31  A    between atoms: _75  and  _76
REMARK   32  A    between atoms: _75  and  _78
REMARK   33  A    between atoms: _78  and  _79
REMARK   34  A    between atoms: _82  and  _84
REMARK   35  A    between atoms: _84  and  _85
REMARK   36  A    between atoms: _84  and  _87
REMARK   37  A    between atoms: _87  and  _88
REMARK   38  A    between atoms: _88  and  _89
REMARK   39  A    between atoms: _89  and  _90
REMARK   40  A    between atoms: _99  and  _101
REMARK   41  A    between atoms: _101  and  _102
REMARK   42  A    between atoms: _101  and  _104
REMARK   43  A    between atoms: _104  and  _105
REMARK   44  A    between atoms: _108  and  _110
REMARK   45  A    between atoms: _110  and  _111
REMARK   46  A    between atoms: _110  and  _113
REMARK   47  A    between atoms: _113  and  _114
REMARK   48  A    between atoms: _120  and  _122
REMARK   49  A    between atoms: _122  and  _123
REMARK   50  A    between atoms: _122  and  _125
REMARK   51  A    between atoms: _125  and  _126
REMARK   52  A    between atoms: _126  and  _127
REMARK   53  A    between atoms: _132  and  _134
REMARK   54  A    between atoms: _134  and  _135
REMARK   55  A    between atoms: _137  and  _139
REMARK   56  A    between atoms: _139  and  _140
REMARK   57  A    between atoms: _139  and  _142
REMARK   58  A    between atoms: _144  and  _146
REMARK   59  A    between atoms: _146  and  _147
REMARK   60  A    between atoms: _146  and  _149
REMARK   61  A    between atoms: _149  and  _150
REMARK   62  A    between atoms: _150  and  _151
REMARK   63  A    between atoms: _156  and  _158
REMARK   64  A    between atoms: _158  and  _159
REMARK   65  A    between atoms: _158  and  _161
REMARK   66  A    between atoms: _161  and  _162
REMARK   67  A    between atoms: _168  and  _170
REMARK   68  A    between atoms: _170  and  _171
REMARK   69  A    between atoms: _170  and  _173
REMARK   70  A    between atoms: _173  and  _174
REMARK   71  A    between atoms: _174  and  _175
REMARK   72  A    between atoms: _175  and  _176
REMARK   73  A    between atoms: _185  and  _187
REMARK   74  A    between atoms: _187  and  _188
REMARK   75  A    between atoms: _187  and  _190
REMARK   76  A    between atoms: _190  and  _191
REMARK   77  A    between atoms: _193  and  _195
REMARK   78  A    between atoms: _195  and  _196
REMARK   79  A    between atoms: _195  and  _198
REMARK   80  A    between atoms: _201  and  _203
REMARK   81  A    between atoms: _203  and  _204
REMARK   82  A    between atoms: _203  and  _206
REMARK   83  A    between atoms: _206  and  _207
REMARK   84  A    between atoms: _207  and  _208
REMARK   85  A    between atoms: _211  and  _213
REMARK   86  A    between atoms: _213  and  _214
REMARK   87  A    between atoms: _217  and  _219
REMARK   88  A    between atoms: _219  and  _220
REMARK   89  A    between atoms: _219  and  _222
REMARK   90  A    between atoms: _225  and  _227
REMARK   91  A    between atoms: _227  and  _228
REMARK   92  A    between atoms: _227  and  _230
REMARK   93  A    between atoms: _233  and  _235
REMARK   94  A    between atoms: _235  and  _236
REMARK   95  A    between atoms: _235  and  _238
REMARK   96  A    between atoms: _238  and  _239
REMARK   97  A    between atoms: _244  and  _246
REMARK   98  A    between atoms: _246  and  _247
REMARK   99  A    between atoms: _246  and  _249
REMARK  100  A    between atoms: _249  and  _250
REMARK  101  A    between atoms: _253  and  _255
REMARK  102  A    between atoms: _255  and  _256
REMARK  103  A    between atoms: _255  and  _258
REMARK  104  A    between atoms: _258  and  _259
REMARK  105  A    between atoms: _264  and  _265
REMARK  106  A    between atoms: _267  and  _269
REMARK  107  A    between atoms: _269  and  _270
REMARK  108  A    between atoms: _269  and  _272
REMARK  109  A    between atoms: _272  and  _273
REMARK  110  A    between atoms: _276  and  _278
REMARK  111  A    between atoms: _278  and  _279
REMARK  112  A    between atoms: _278  and  _281
REMARK  113  A    between atoms: _281  and  _282
REMARK  114  A    between atoms: _285  and  _287
REMARK  115  A    between atoms: _287  and  _288
REMARK  116  A    between atoms: _287  and  _290
REMARK  117  A    between atoms: _290  and  _291
REMARK  118  A    between atoms: _291  and  _292
REMARK  119  A    between atoms: _294  and  _296
REMARK  120  A    between atoms: _296  and  _297
REMARK  121  A    between atoms: _296  and  _299
REMARK  122  A    between atoms: _302  and  _304
REMARK  123  A    between atoms: _304  and  _305
REMARK  124  A    between atoms: _304  and  _307
REMARK  125  A    between atoms: _307  and  _308
REMARK  126  A    between atoms: _311  and  _313
REMARK  127  A    between atoms: _313  and  _314
REMARK  128  A    between atoms: _313  and  _316
REMARK  129  A    between atoms: _316  and  _317
REMARK  130  A    between atoms: _320  and  _322
REMARK  131  A    between atoms: _322  and  _323
REMARK  132  A    between atoms: _322  and  _325
REMARK  133  A    between atoms: _325  and  _326
REMARK  134  A    between atoms: _328  and  _330
REMARK  135  A    between atoms: _330  and  _331
REMARK  136  A    between atoms: _330  and  _333
REMARK  137  A    between atoms: _333  and  _334
REMARK  138  A    between atoms: _334  and  _335
REMARK  139  A    between atoms: _338  and  _340
REMARK  140  A    between atoms: _340  and  _341
REMARK  141  A    between atoms: _343  and  _345
REMARK  142  A    between atoms: _345  and  _346
REMARK  143  A    between atoms: _348  and  _350
REMARK  144  A    between atoms: _350  and  _351
REMARK  145  A    between atoms: _350  and  _353
REMARK  146  A    between atoms: _353  and  _354
REMARK  147  A    between atoms: _354  and  _355
REMARK  148  A    between atoms: _357  and  _359
REMARK  149  A    between atoms: _359  and  _360
REMARK  150  A    between atoms: _359  and  _362
REMARK  151  A    between atoms: _362  and  _363
REMARK  152  A    between atoms: _366  and  _368
REMARK  153  A    between atoms: _368  and  _369
REMARK  154  A    between atoms: _368  and  _371
REMARK  155  A    between atoms: _371  and  _372
REMARK  156  A    between atoms: _378  and  _380
REMARK  157  A    between atoms: _380  and  _381
REMARK  158  A    between atoms: _380  and  _383
REMARK  159  A    between atoms: _383  and  _384
REMARK  160  A    between atoms: _387  and  _389
REMARK  161  A    between atoms: _389  and  _390
REMARK  162  A    between atoms: _389  and  _392
REMARK  163  A    between atoms: _392  and  _393
REMARK  164  A    between atoms: _396  and  _398
REMARK  165  A    between atoms: _398  and  _399
REMARK  166  A    between atoms: _398  and  _401
REMARK  167  A    between atoms: _401  and  _402
REMARK  168  A    between atoms: _402  and  _403
REMARK  169  A    between atoms: _403  and  _404
REMARK  170  A    between atoms: _414  and  _415
REMARK  171  A    between atoms: _420  and  _422
REMARK  172  A    between atoms: _422  and  _423
REMARK  173  A    between atoms: _422  and  _425
REMARK  174  A    between atoms: _425  and  _426
REMARK  175  A    between atoms: _432  and  _434
REMARK  176  A    between atoms: _434  and  _435
REMARK  177  A    between atoms: _437  and  _439
REMARK  178  A    between atoms: _439  and  _440
REMARK  179  A    between atoms: _439  and  _442
REMARK  180  A    between atoms: _442  and  _443
REMARK  181  A    between atoms: _446  and  _448
REMARK  182  A    between atoms: _448  and  _449
REMARK  183  A    between atoms: _448  and  _451
REMARK  184  A    between atoms: _451  and  _452
REMARK  185  A    between atoms: _458  and  _460
REMARK  186  A    between atoms: _460  and  _461
REMARK  187  A    between atoms: _460  and  _463
REMARK  188  A    between atoms: _463  and  _464
REMARK  189  A    between atoms: _464  and  _465
REMARK  190  A    between atoms: _467  and  _469
REMARK  191  A    between atoms: _469  and  _470
REMARK  192  A    between atoms: _469  and  _472
REMARK  193  A    between atoms: _472  and  _473
REMARK  194  A    between atoms: _473  and  _474
REMARK  195  A    between atoms: _477  and  _479
REMARK  196  A    between atoms: _479  and  _480
REMARK  197  A    between atoms: _479  and  _482
REMARK  198  A    between atoms: _482  and  _483
REMARK  199  A    between atoms: _483  and  _484
REMARK  200  A    between atoms: _484  and  _485
REMARK  201  A    between atoms: _485  and  _486
REMARK  202  A    between atoms: _490  and  _492
REMARK  203  A    between atoms: _492  and  _493
REMARK  204  A    between atoms: _492  and  _495
REMARK  205  A    between atoms: _495  and  _496
REMARK  206  A    between atoms: _502  and  _504
REMARK  207  A    between atoms: _504  and  _505
REMARK  208  A    between atoms: _504  and  _507
REMARK  209  A    between atoms: _510  and  _512
REMARK  210  A    between atoms: _512  and  _513
REMARK  211  A    between atoms: _512  and  _515
REMARK  212  A    between atoms: _515  and  _516
REMARK  213  A    between atoms: _521  and  _523
REMARK  214  A    between atoms: _523  and  _524
REMARK  215  A    between atoms: _523  and  _526
REMARK  216  A    between atoms: _529  and  _531
REMARK  217  A    between atoms: _531  and  _532
REMARK  218  A    between atoms: _531  and  _534
REMARK  219  A    between atoms: _534  and  _535
REMARK  220  A    between atoms: _538  and  _540
REMARK  221  A    between atoms: _540  and  _541
REMARK  222  A    between atoms: _540  and  _543
REMARK  223  A    between atoms: _543  and  _544
REMARK  224  A    between atoms: _547  and  _549
REMARK  225  A    between atoms: _549  and  _550
REMARK  226  A    between atoms: _549  and  _552
REMARK  227  A    between atoms: _552  and  _553
REMARK  228  A    between atoms: _556  and  _558
REMARK  229  A    between atoms: _558  and  _559
REMARK  230  A    between atoms: _558  and  _561
REMARK  231  A    between atoms: _561  and  _562
REMARK  232  A    between atoms: _562  and  _563
REMARK  233  A    between atoms: _565  and  _567
REMARK  234  A    between atoms: _567  and  _568
REMARK  235  A    between atoms: _567  and  _570
REMARK  236  A    between atoms: _570  and  _571
REMARK  237  A    between atoms: _573  and  _575
REMARK  238  A    between atoms: _575  and  _576
REMARK  239  A    between atoms: _575  and  _578
REMARK  240  A    between atoms: _578  and  _579
REMARK  241  A    between atoms: _582  and  _584
REMARK  242  A    between atoms: _584  and  _585
REMARK  243  A    between atoms: _584  and  _587
REMARK  244  A    between atoms: _587  and  _588
REMARK  245  A    between atoms: _593  and  _595
REMARK  246  A    between atoms: _595  and  _596
REMARK  247  A    between atoms: _595  and  _598
REMARK  248  A    between atoms: _598  and  _599
REMARK  249  A    between atoms: _602  and  _604
REMARK  250  A    between atoms: _604  and  _605
REMARK  251  A    between atoms: _604  and  _607
REMARK  252  A    between atoms: _607  and  _608
REMARK  253  A    between atoms: _611  and  _613
REMARK  254  A    between atoms: _613  and  _614
REMARK  255  A    between atoms: _613  and  _616
REMARK  256  A    between atoms: _616  and  _617
REMARK  257  A    between atoms: _617  and  _618
REMARK  258  A    between atoms: _623  and  _625
REMARK  259  A    between atoms: _625  and  _626
REMARK  260  A    between atoms: _625  and  _628
REMARK  261  A    between atoms: _628  and  _629
REMARK  262  A    between atoms: _632  and  _634
REMARK  263  A    between atoms: _634  and  _635
REMARK  264  A    between atoms: _634  and  _637
REMARK  265  A    between atoms: _637  and  _638
REMARK  266  A    between atoms: _643  and  _644
REMARK                            x       y       z     vdW  Elec       q    Type
REMARK                         _______ _______ _______ _____ _____    ______ ____
ROOT
ATOM      1  C   LEU A   1       3.204   2.725   8.106  0.00  0.00    +0.238 C 
ATOM      2  N   MET A   2       2.605   2.597   9.288  0.00  0.00    -0.298 N 
ATOM      3  H   MET A   2       2.885   3.210  10.080  0.00  0.00    +0.150 HD
ATOM      4  O   LEU A   1       2.899   2.051   7.122  0.00  0.00    -0.274 OA
ENDROOT
BRANCH   1   5
ATOM      5  CA  LEU A   1       4.296   3.776   8.002  0.00  0.00    +0.145 C 
BRANCH   5   6
ATOM      6  N   LEU A   1       4.597   4.439   9.267  0.00  0.00    -0.238 NA
ATOM      7  H   LEU A   1       5.279   4.006   9.922  0.00  0.00    +0.142 HD
ENDBRANCH   5   6
BRANCH   5   8
ATOM      8  CB  LEU A   1       5.575   3.137   7.443  0.00  0.00    +0.026 C 
BRANCH   8   9
ATOM      9  CG  LEU A   1       6.820   4.028   7.374  0.00  0.00    +0.002 C 
ATOM     10  CD2 LEU A   1       7.940   3.250   6.723  0.00  0.00    +0.000 C 
ATOM     11  CD1 LEU A   1       6.544   5.316   6.598  0.00  0.00    +0.000 C 
ENDBRANCH   8   9
ENDBRANCH   5   8
ENDBRANCH   1   5
BRANCH   2  12
ATOM     12  CA  MET A   2       1.556   1.599   9.475  0.00  0.00    +0.138 C 
BRANCH  12  13
ATOM     13  C   MET A   2       0.182   2.147   9.815  0.00  0.00    +0.227 C 
ATOM     14  O   MET A   2       0.035   3.242  10.344  0.00  0.00    -0.286 OA
ENDBRANCH  12  13
BRANCH  12  15
ATOM     15  CB  MET A   2       1.893   0.648  10.624  0.00  0.00    +0.039 C 
BRANCH  15  16
ATOM     16  CG  MET A   2       3.269   0.032  10.657  0.00  0.00    +0.060 C 
BRANCH  16  17
ATOM     17  SD  MET A   2       3.454  -0.787  12.275  0.00  0.00    -0.139 S 
ATOM     18  CE  MET A   2       4.347  -2.188  11.827  0.00  0.00    +0.069 C 
ENDBRANCH  16  17
ENDBRANCH  15  16
ENDBRANCH  12  15
ENDBRANCH   2  12
TORSDOF 9
REMARK  Name = ../refined-set-2016/1fm9/1fm9_pocket.pdb
REMARK  266 active torsions:
REMARK  status: ('A' for Active; 'I' for Inactive)
REMARK    1  A    between atoms: _1  and  _3
REMARK    2  A    between atoms: _3  and  _4
REMARK    3  A    between atoms: _3  and  _6
REMARK    4  A    between atoms: _6  and  _7
REMARK    5  A    between atoms: _10  and  _12
REMARK    6  A    between atoms: _12  and  _13
REMARK    7  A    between atoms: _12  and  _15
REMARK    8  A    between atoms: _15  and  _16
REMARK    9  A    between atoms: _19  and  _21
REMARK   10  A    between atoms: _21  and  _22
REMARK   11  A    between atoms: _24  and  _26
REMARK   12  A    between atoms: _26  and  _27
REMARK   13  A    between atoms: _26  and  _29
REMARK   14  A    between atoms: _29  and  _30
REMARK   15  A    between atoms: _30  and  _31
REMARK   16  A    between atoms: _34  and  _36
REMARK   17  A    between atoms: _36  and  _37
REMARK   18  A    between atoms: _36  and  _39
REMARK   19  A    between atoms: _39  and  _40
REMARK   20  A    between atoms: _44  and  _45
REMARK   21  A    between atoms: _50  and  _52
REMARK   22  A    between atoms: _52  and  _53
REMARK   23  A    between atoms: _52  and  _55
REMARK   24  A    between atoms: _55  and  _56
REMARK   25  A    between atoms: _59  and  _61
REMARK   26  A    between atoms: _61  and  _62
REMARK   27  A    between atoms: _61  and  _64
REMARK   28  A    between atoms: _67  and  _69
REMARK   29  A    between atoms: _69  and  _70
REMARK   30  A    between atoms: _73  and  _75
REMARK   31  A    between atoms: _75  and  _76
REMARK   32  A    between atoms: _75  and  _78
REMARK   33  A    between atoms: _78  and  _79
REMARK   34  A    between atoms: _82  and  _84
REMARK   35  A    between atoms: _84  and  _85
REMARK   36  A    between atoms: _84  and  _87
REMARK   37  A    between atoms: _87  and  _88
REMARK   38  A    between atoms: _88  and  _89
REMARK   39  A    between atoms: _89  and  _90
REMARK   40  A    between atoms: _99  and  _101
REMARK   41  A    between atoms: _101  and  _102
REMARK   42  A    between atoms: _101  and  _104
REMARK   43  A    between atoms: _104  and  _105
REMARK   44  A    between atoms: _108  and  _110
REMARK   45  A    between atoms: _110  and  _111
REMARK   46  A    between atoms: _110  and  _113
REMARK   47  A    between atoms: _113  and  _114
REMARK   48  A    between atoms: _120  and  _122
REMARK   49  A    between atoms: _122  and  _123
REMARK   50  A    between atoms: _122  and  _125
REMARK   51  A    between atoms: _125  and  _126
REMARK   52  A    between atoms: _126  and  _127
REMARK   53  A    between atoms: _132  and  _134
REMARK   54  A    between atoms: _134  and  _135
REMARK   55  A    between atoms: _137  and  _139
REMARK   56  A    between atoms: _139  and  _140
REMARK   57  A    between atoms: _139  and  _142
REMARK   58  A    between atoms: _144  and  _146
REMARK   59  A    between atoms: _146  and  _147
REMARK   60  A    between atoms: _146  and  _149
REMARK   61  A    between atoms: _149  and  _150
REMARK   62  A    between atoms: _150  and  _151
REMARK   63  A    between atoms: _156  and  _158
REMARK   64  A    between atoms: _158  and  _159
REMARK   65  A    between atoms: _158  and  _161
REMARK   66  A    between atoms: _161  and  _162
REMARK   67  A    between atoms: _168  and  _170
REMARK   68  A    between atoms: _170  and  _171
REMARK   69  A    between atoms: _170  and  _173
REMARK   70  A    between atoms: _173  and  _174
REMARK   71  A    between atoms: _174  and  _175
REMARK   72  A    between atoms: _175  and  _176
REMARK   73  A    between atoms: _185  and  _187
REMARK   74  A    between atoms: _187  and  _188
REMARK   75  A    between atoms: _187  and  _190
REMARK   76  A    between atoms: _190  and  _191
REMARK   77  A    between atoms: _193  and  _195
REMARK   78  A    between atoms: _195  and  _196
REMARK   79  A    between atoms: _195  and  _198
REMARK   80  A    between atoms: _201  and  _203
REMARK   81  A    between atoms: _203  and  _204
REMARK   82  A    between atoms: _203  and  _206
REMARK   83  A    between atoms: _206  and  _207
REMARK   84  A    between atoms: _207  and  _208
REMARK   85  A    between atoms: _211  and  _213
REMARK   86  A    between atoms: _213  and  _214
REMARK   87  A    between atoms: _217  and  _219
REMARK   88  A    between atoms: _219  and  _220
REMARK   89  A    between atoms: _219  and  _222
REMARK   90  A    between atoms: _225  and  _227
REMARK   91  A    between atoms: _227  and  _228
REMARK   92  A    between atoms: _227  and  _230
REMARK   93  A    between atoms: _233  and  _235
REMARK   94  A    between atoms: _235  and  _236
REMARK   95  A    between atoms: _235  and  _238
REMARK   96  A    between atoms: _238  and  _239
REMARK   97  A    between atoms: _244  and  _246
REMARK   98  A    between atoms: _246  and  _247
REMARK   99  A    between atoms: _246  and  _249
REMARK  100  A    between atoms: _249  and  _250
REMARK  101  A    between atoms: _253  and  _255
REMARK  102  A    between atoms: _255  and  _256
REMARK  103  A    between atoms: _255  and  _258
REMARK  104  A    between atoms: _258  and  _259
REMARK  105  A    between atoms: _264  and  _265
REMARK  106  A    between atoms: _267  and  _269
REMARK  107  A    between atoms: _269  and  _270
REMARK  108  A    between atoms: _269  and  _272
REMARK  109  A    between atoms: _272  and  _273
REMARK  110  A    between atoms: _276  and  _278
REMARK  111  A    between atoms: _278  and  _279
REMARK  112  A    between atoms: _278  and  _281
REMARK  113  A    between atoms: _281  and  _282
REMARK  114  A    between atoms: _285  and  _287
REMARK  115  A    between atoms: _287  and  _288
REMARK  116  A    between atoms: _287  and  _290
REMARK  117  A    between atoms: _290  and  _291
REMARK  118  A    between atoms: _291  and  _292
REMARK  119  A    between atoms: _294  and  _296
REMARK  120  A    between atoms: _296  and  _297
REMARK  121  A    between atoms: _296  and  _299
REMARK  122  A    between atoms: _302  and  _304
REMARK  123  A    between atoms: _304  and  _305
REMARK  124  A    between atoms: _304  and  _307
REMARK  125  A    between atoms: _307  and  _308
REMARK  126  A    between atoms: _311  and  _313
REMARK  127  A    between atoms: _313  and  _314
REMARK  128  A    between atoms: _313  and  _316
REMARK  129  A    between atoms: _316  and  _317
REMARK  130  A    between atoms: _320  and  _322
REMARK  131  A    between atoms: _322  and  _323
REMARK  132  A    between atoms: _322  and  _325
REMARK  133  A    between atoms: _325  and  _326
REMARK  134  A    between atoms: _328  and  _330
REMARK  135  A    between atoms: _330  and  _331
REMARK  136  A    between atoms: _330  and  _333
REMARK  137  A    between atoms: _333  and  _334
REMARK  138  A    between atoms: _334  and  _335
REMARK  139  A    between atoms: _338  and  _340
REMARK  140  A    between atoms: _340  and  _341
REMARK  141  A    between atoms: _343  and  _345
REMARK  142  A    between atoms: _345  and  _346
REMARK  143  A    between atoms: _348  and  _350
REMARK  144  A    between atoms: _350  and  _351
REMARK  145  A    between atoms: _350  and  _353
REMARK  146  A    between atoms: _353  and  _354
REMARK  147  A    between atoms: _354  and  _355
REMARK  148  A    between atoms: _357  and  _359
REMARK  149  A    between atoms: _359  and  _360
REMARK  150  A    between atoms: _359  and  _362
REMARK  151  A    between atoms: _362  and  _363
REMARK  152  A    between atoms: _366  and  _368
REMARK  153  A    between atoms: _368  and  _369
REMARK  154  A    between atoms: _368  and  _371
REMARK  155  A    between atoms: _371  and  _372
REMARK  156  A    between atoms: _378  and  _380
REMARK  157  A    between atoms: _380  and  _381
REMARK  158  A    between atoms: _380  and  _383
REMARK  159  A    between atoms: _383  and  _384
REMARK  160  A    between atoms: _387  and  _389
REMARK  161  A    between atoms: _389  and  _390
REMARK  162  A    between atoms: _389  and  _392
REMARK  163  A    between atoms: _392  and  _393
REMARK  164  A    between atoms: _396  and  _398
REMARK  165  A    between atoms: _398  and  _399
REMARK  166  A    between atoms: _398  and  _401
REMARK  167  A    between atoms: _401  and  _402
REMARK  168  A    between atoms: _402  and  _403
REMARK  169  A    between atoms: _403  and  _404
REMARK  170  A    between atoms: _414  and  _415
REMARK  171  A    between atoms: _420  and  _422
REMARK  172  A    between atoms: _422  and  _423
REMARK  173  A    between atoms: _422  and  _425
REMARK  174  A    between atoms: _425  and  _426
REMARK  175  A    between atoms: _432  and  _434
REMARK  176  A    between atoms: _434  and  _435
REMARK  177  A    between atoms: _437  and  _439
REMARK  178  A    between atoms: _439  and  _440
REMARK  179  A    between atoms: _439  and  _442
REMARK  180  A    between atoms: _442  and  _443
REMARK  181  A    between atoms: _446  and  _448
REMARK  182  A    between atoms: _448  and  _449
REMARK  183  A    between atoms: _448  and  _451
REMARK  184  A    between atoms: _451  and  _452
REMARK  185  A    between atoms: _458  and  _460
REMARK  186  A    between atoms: _460  and  _461
REMARK  187  A    between atoms: _460  and  _463
REMARK  188  A    between atoms: _463  and  _464
REMARK  189  A    between atoms: _464  and  _465
REMARK  190  A    between atoms: _467  and  _469
REMARK  191  A    between atoms: _469  and  _470
REMARK  192  A    between atoms: _469  and  _472
REMARK  193  A    between atoms: _472  and  _473
REMARK  194  A    between atoms: _473  and  _474
REMARK  195  A    between atoms: _477  and  _479
REMARK  196  A    between atoms: _479  and  _480
REMARK  197  A    between atoms: _479  and  _482
REMARK  198  A    between atoms: _482  and  _483
REMARK  199  A    between atoms: _483  and  _484
REMARK  200  A    between atoms: _484  and  _485
REMARK  201  A    between atoms: _485  and  _486
REMARK  202  A    between atoms: _490  and  _492
REMARK  203  A    between atoms: _492  and  _493
REMARK  204  A    between atoms: _492  and  _495
REMARK  205  A    between atoms: _495  and  _496
REMARK  206  A    between atoms: _502  and  _504
REMARK  207  A    between atoms: _504  and  _505
REMARK  208  A    between atoms: _504  and  _507
REMARK  209  A    between atoms: _510  and  _512
REMARK  210  A    between atoms: _512  and  _513
REMARK  211  A    between atoms: _512  and  _515
REMARK  212  A    between atoms: _515  and  _516
REMARK  213  A    between atoms: _521  and  _523
REMARK  214  A    between atoms: _523  and  _524
REMARK  215  A    between atoms: _523  and  _526
REMARK  216  A    between atoms: _529  and  _531
REMARK  217  A    between atoms: _531  and  _532
REMARK  218  A    between atoms: _531  and  _534
REMARK  219  A    between atoms: _534  and  _535
REMARK  220  A    between atoms: _538  and  _540
REMARK  221  A    between atoms: _540  and  _541
REMARK  222  A    between atoms: _540  and  _543
REMARK  223  A    between atoms: _543  and  _544
REMARK  224  A    between atoms: _547  and  _549
REMARK  225  A    between atoms: _549  and  _550
REMARK  226  A    between atoms: _549  and  _552
REMARK  227  A    between atoms: _552  and  _553
REMARK  228  A    between atoms: _556  and  _558
REMARK  229  A    between atoms: _558  and  _559
REMARK  230  A    between atoms: _558  and  _561
REMARK  231  A    between atoms: _561  and  _562
REMARK  232  A    between atoms: _562  and  _563
REMARK  233  A    between atoms: _565  and  _567
REMARK  234  A    between atoms: _567  and  _568
REMARK  235  A    between atoms: _567  and  _570
REMARK  236  A    between atoms: _570  and  _571
REMARK  237  A    between atoms: _573  and  _575
REMARK  238  A    between atoms: _575  and  _576
REMARK  239  A    between atoms: _575  and  _578
REMARK  240  A    between atoms: _578  and  _579
REMARK  241  A    between atoms: _582  and  _584
REMARK  242  A    between atoms: _584  and  _585
REMARK  243  A    between atoms: _584  and  _587
REMARK  244  A    between atoms: _587  and  _588
REMARK  245  A    between atoms: _593  and  _595
REMARK  246  A    between atoms: _595  and  _596
REMARK  247  A    between atoms: _595  and  _598
REMARK  248  A    between atoms: _598  and  _599
REMARK  249  A    between atoms: _602  and  _604
REMARK  250  A    between atoms: _604  and  _605
REMARK  251  A    between atoms: _604  and  _607
REMARK  252  A    between atoms: _607  and  _608
REMARK  253  A    between atoms: _611  and  _613
REMARK  254  A    between atoms: _613  and  _614
REMARK  255  A    between atoms: _613  and  _616
REMARK  256  A    between atoms: _616  and  _617
REMARK  257  A    between atoms: _617  and  _618
REMARK  258  A    between atoms: _623  and  _625
REMARK  259  A    between atoms: _625  and  _626
REMARK  260  A    between atoms: _625  and  _628
REMARK  261  A    between atoms: _628  and  _629
REMARK  262  A    between atoms: _632  and  _634
REMARK  263  A    between atoms: _634  and  _635
REMARK  264  A    between atoms: _634  and  _637
REMARK  265  A    between atoms: _637  and  _638
REMARK  266  A    between atoms: _643  and  _644
REMARK                            x       y       z     vdW  Elec       q    Type
REMARK                         _______ _______ _______ _____ _____    ______ ____
ROOT
ATOM      1  C   ILE A   3       8.387  -0.322   1.299  0.00  0.00    +0.241 C 
ATOM      2  N   SER A   4       9.704  -0.476   1.219  0.00  0.00    -0.295 N 
ATOM      3  H   SER A   4      10.208  -0.937   2.003  0.00  0.00    +0.150 HD
ATOM      4  O   ILE A   3       7.714   0.234   0.427  0.00  0.00    -0.273 OA
ENDROOT
BRANCH   1   5
ATOM      5  CA  ILE A   3       7.726  -0.885   2.556  0.00  0.00    +0.149 C 
BRANCH   5   8
ATOM      6  C   LEU A   2       5.895   0.047   3.848  0.00  0.00    +0.241 C 
ATOM      7  O   LEU A   2       6.530  -0.016   4.897  0.00  0.00    -0.273 OA
ATOM      8  N   ILE A   3       6.379  -0.351   2.676  0.00  0.00    -0.297 N 
ATOM      9  H   ILE A   3       5.782  -0.279   1.827  0.00  0.00    +0.150 HD
BRANCH   6  10
ATOM     10  CA  LEU A   2       4.472   0.600   3.840  0.00  0.00    +0.149 C 
BRANCH  10  12
ATOM     11  C   VAL A   1       3.286  -0.992   5.253  0.00  0.00    +0.238 C 
ATOM     12  N   LEU A   2       3.810   0.219   5.078  0.00  0.00    -0.297 N 
ATOM     13  H   LEU A   2       3.744   0.913   5.849  0.00  0.00    +0.150 HD
ATOM     14  O   VAL A   1       3.292  -1.859   4.378  0.00  0.00    -0.274 OA
BRANCH  11  15
ATOM     15  CA  VAL A   1       2.643  -1.261   6.624  0.00  0.00    +0.145 C 
BRANCH  15  16
ATOM     16  CB  VAL A   1       3.663  -1.906   7.604  0.00  0.00    +0.025 C 
ATOM     17  CG2 VAL A   1       4.958  -1.113   7.696  0.00  0.00    +0.002 C 
ATOM     18  CG1 VAL A   1       3.937  -3.343   7.169  0.00  0.00    +0.002 C 
ENDBRANCH  15  16
BRANCH  15  19
ATOM     19  N   VAL A   1       1.505  -2.141   6.486  0.00  0.00    -0.238 NA
ATOM     20  H   VAL A   1       1.552  -2.925   5.804  0.00  0.00    +0.142 HD
ENDBRANCH  15  19
ENDBRANCH  11  15
ENDBRANCH  10  12
BRANCH  10  21
ATOM     21  CB  LEU A   2       4.540   2.130   3.715  0.00  0.00    +0.029 C 
BRANCH  21  22
ATOM     22  CG  LEU A   2       3.222   2.894   3.564  0.00  0.00    +0.002 C 
ATOM     23  CD2 LEU A   2       3.482   4.395   3.675  0.00  0.00    +0.000 C 
ATOM     24  CD1 LEU A   2       2.585   2.555   2.219  0.00  0.00    +0.000 C 
ENDBRANCH  21  22
ENDBRANCH  10  21
ENDBRANCH   6  10
ENDBRANCH   5   8
BRANCH   5  25
ATOM     25  CB  ILE A   3       7.727  -2.423   2.416  0.00  0.00    +0.027 C 
ATOM     26  CG2 ILE A   3       6.879  -3.042   3.529  0.00  0.00    +0.002 C 
BRANCH  25  27
ATOM     27  CG1 ILE A   3       7.184  -2.816   1.035  0.00  0.00    +0.002 C 
ATOM     28  CD1 ILE A   3       7.329  -4.290   0.698  0.00  0.00    +0.000 C 
ENDBRANCH  25  27
ENDBRANCH   5  25
ENDBRANCH   1   5
BRANCH   2  29
ATOM     29  CA  SER A   4      10.457  -0.018   0.067  0.00  0.00    +0.178 C 
BRANCH  29  30
ATOM     30  C   SER A   4      10.141   1.434  -0.302  0.00  0.00    +0.243 C 
ATOM     31  N   GLU A   5      10.492   2.354   0.591  0.00  0.00    -0.297 N 
ATOM     32  H   GLU A   5      10.948   2.057   1.477  0.00  0.00    +0.150 HD
ATOM     33  O   SER A   4       9.589   1.709  -1.368  0.00  0.00    -0.273 OA
BRANCH  31  34
ATOM     34  CA  GLU A   5      10.250   3.773   0.351  0.00  0.00    +0.149 C 
BRANCH  34  35
ATOM     35  C   GLU A   5       8.781   4.056   0.049  0.00  0.00    +0.241 C 
ATOM     36  N   GLY A   6       7.893   3.145   0.434  0.00  0.00    -0.296 N 
ATOM     37  H   GLY A   6       8.206   2.278   0.916  0.00  0.00    +0.150 HD
ATOM     38  O   GLU A   5       8.468   5.076  -0.551  0.00  0.00    -0.273 OA
BRANCH  36  39
ATOM     39  CA  GLY A   6       6.483   3.370   0.176  0.00  0.00    +0.163 C 
BRANCH  39  40
ATOM     40  C   GLY A   6       5.977   2.853  -1.163  0.00  0.00    +0.229 C 
ATOM     41  O   GLY A   6       4.840   3.122  -1.541  0.00  0.00    -0.286 OA
ENDBRANCH  39  40
ENDBRANCH  36  39
ENDBRANCH  34  35
BRANCH  34  42
ATOM     42  CB  GLU A   5      11.061   4.265  -0.845  0.00  0.00    +0.041 C 
BRANCH  42  43
ATOM     43  CG  GLU A   5      12.564   4.264  -0.690  0.00  0.00    +0.116 C 
BRANCH  43  44
ATOM     44  CD  GLU A   5      13.250   4.371  -2.044  0.00  0.00    +0.365 C 
ATOM     45  OE2 GLU A   5      14.198   3.593  -2.302  0.00  0.00    -0.246 OA
ATOM     46  OE1 GLU A   5      12.831   5.234  -2.847  0.00  0.00    -0.246 OA
ENDBRANCH  43  44
ENDBRANCH  42  43
ENDBRANCH  34  42
ENDBRANCH  31  34
ENDBRANCH  29  30
BRANCH  29  47
ATOM     47  CB  SER A   4      10.158  -0.929  -1.121  0.00  0.00    +0.166 C 
BRANCH  47  48
ATOM     48  OG  SER A   4      10.252  -2.294  -0.737  0.00  0.00    -0.380 OA
ATOM     49  H   SER A   4      10.055  -2.870  -1.518  0.00  0.00    +0.211 HD
ENDBRANCH  47  48
ENDBRANCH  29  47
ENDBRANCH   2  29
TORSDOF 22
REMARK  Name = ../refined-set-2016/1fm9/1fm9_pocket.pdb
REMARK  266 active torsions:
REMARK  status: ('A' for Active; 'I' for Inactive)
REMARK    1  A    between atoms: _1  and  _3
REMARK    2  A    between atoms: _3  and  _4
REMARK    3  A    between atoms: _3  and  _6
REMARK    4  A    between atoms: _6  and  _7
REMARK    5  A    between atoms: _10  and  _12
REMARK    6  A    between atoms: _12  and  _13
REMARK    7  A    between atoms: _12  and  _15
REMARK    8  A    between atoms: _15  and  _16
REMARK    9  A    between atoms: _19  and  _21
REMARK   10  A    between atoms: _21  and  _22
REMARK   11  A    between atoms: _24  and  _26
REMARK   12  A    between atoms: _26  and  _27
REMARK   13  A    between atoms: _26  and  _29
REMARK   14  A    between atoms: _29  and  _30
REMARK   15  A    between atoms: _30  and  _31
REMARK   16  A    between atoms: _34  and  _36
REMARK   17  A    between atoms: _36  and  _37
REMARK   18  A    between atoms: _36  and  _39
REMARK   19  A    between atoms: _39  and  _40
REMARK   20  A    between atoms: _44  and  _45
REMARK   21  A    between atoms: _50  and  _52
REMARK   22  A    between atoms: _52  and  _53
REMARK   23  A    between atoms: _52  and  _55
REMARK   24  A    between atoms: _55  and  _56
REMARK   25  A    between atoms: _59  and  _61
REMARK   26  A    between atoms: _61  and  _62
REMARK   27  A    between atoms: _61  and  _64
REMARK   28  A    between atoms: _67  and  _69
REMARK   29  A    between atoms: _69  and  _70
REMARK   30  A    between atoms: _73  and  _75
REMARK   31  A    between atoms: _75  and  _76
REMARK   32  A    between atoms: _75  and  _78
REMARK   33  A    between atoms: _78  and  _79
REMARK   34  A    between atoms: _82  and  _84
REMARK   35  A    between atoms: _84  and  _85
REMARK   36  A    between atoms: _84  and  _87
REMARK   37  A    between atoms: _87  and  _88
REMARK   38  A    between atoms: _88  and  _89
REMARK   39  A    between atoms: _89  and  _90
REMARK   40  A    between atoms: _99  and  _101
REMARK   41  A    between atoms: _101  and  _102
REMARK   42  A    between atoms: _101  and  _104
REMARK   43  A    between atoms: _104  and  _105
REMARK   44  A    between atoms: _108  and  _110
REMARK   45  A    between atoms: _110  and  _111
REMARK   46  A    between atoms: _110  and  _113
REMARK   47  A    between atoms: _113  and  _114
REMARK   48  A    between atoms: _120  and  _122
REMARK   49  A    between atoms: _122  and  _123
REMARK   50  A    between atoms: _122  and  _125
REMARK   51  A    between atoms: _125  and  _126
REMARK   52  A    between atoms: _126  and  _127
REMARK   53  A    between atoms: _132  and  _134
REMARK   54  A    between atoms: _134  and  _135
REMARK   55  A    between atoms: _137  and  _139
REMARK   56  A    between atoms: _139  and  _140
REMARK   57  A    between atoms: _139  and  _142
REMARK   58  A    between atoms: _144  and  _146
REMARK   59  A    between atoms: _146  and  _147
REMARK   60  A    between atoms: _146  and  _149
REMARK   61  A    between atoms: _149  and  _150
REMARK   62  A    between atoms: _150  and  _151
REMARK   63  A    between atoms: _156  and  _158
REMARK   64  A    between atoms: _158  and  _159
REMARK   65  A    between atoms: _158  and  _161
REMARK   66  A    between atoms: _161  and  _162
REMARK   67  A    between atoms: _168  and  _170
REMARK   68  A    between atoms: _170  and  _171
REMARK   69  A    between atoms: _170  and  _173
REMARK   70  A    between atoms: _173  and  _174
REMARK   71  A    between atoms: _174  and  _175
REMARK   72  A    between atoms: _175  and  _176
REMARK   73  A    between atoms: _185  and  _187
REMARK   74  A    between atoms: _187  and  _188
REMARK   75  A    between atoms: _187  and  _190
REMARK   76  A    between atoms: _190  and  _191
REMARK   77  A    between atoms: _193  and  _195
REMARK   78  A    between atoms: _195  and  _196
REMARK   79  A    between atoms: _195  and  _198
REMARK   80  A    between atoms: _201  and  _203
REMARK   81  A    between atoms: _203  and  _204
REMARK   82  A    between atoms: _203  and  _206
REMARK   83  A    between atoms: _206  and  _207
REMARK   84  A    between atoms: _207  and  _208
REMARK   85  A    between atoms: _211  and  _213
REMARK   86  A    between atoms: _213  and  _214
REMARK   87  A    between atoms: _217  and  _219
REMARK   88  A    between atoms: _219  and  _220
REMARK   89  A    between atoms: _219  and  _222
REMARK   90  A    between atoms: _225  and  _227
REMARK   91  A    between atoms: _227  and  _228
REMARK   92  A    between atoms: _227  and  _230
REMARK   93  A    between atoms: _233  and  _235
REMARK   94  A    between atoms: _235  and  _236
REMARK   95  A    between atoms: _235  and  _238
REMARK   96  A    between atoms: _238  and  _239
REMARK   97  A    between atoms: _244  and  _246
REMARK   98  A    between atoms: _246  and  _247
REMARK   99  A    between atoms: _246  and  _249
REMARK  100  A    between atoms: _249  and  _250
REMARK  101  A    between atoms: _253  and  _255
REMARK  102  A    between atoms: _255  and  _256
REMARK  103  A    between atoms: _255  and  _258
REMARK  104  A    between atoms: _258  and  _259
REMARK  105  A    between atoms: _264  and  _265
REMARK  106  A    between atoms: _267  and  _269
REMARK  107  A    between atoms: _269  and  _270
REMARK  108  A    between atoms: _269  and  _272
REMARK  109  A    between atoms: _272  and  _273
REMARK  110  A    between atoms: _276  and  _278
REMARK  111  A    between atoms: _278  and  _279
REMARK  112  A    between atoms: _278  and  _281
REMARK  113  A    between atoms: _281  and  _282
REMARK  114  A    between atoms: _285  and  _287
REMARK  115  A    between atoms: _287  and  _288
REMARK  116  A    between atoms: _287  and  _290
REMARK  117  A    between atoms: _290  and  _291
REMARK  118  A    between atoms: _291  and  _292
REMARK  119  A    between atoms: _294  and  _296
REMARK  120  A    between atoms: _296  and  _297
REMARK  121  A    between atoms: _296  and  _299
REMARK  122  A    between atoms: _302  and  _304
REMARK  123  A    between atoms: _304  and  _305
REMARK  124  A    between atoms: _304  and  _307
REMARK  125  A    between atoms: _307  and  _308
REMARK  126  A    between atoms: _311  and  _313
REMARK  127  A    between atoms: _313  and  _314
REMARK  128  A    between atoms: _313  and  _316
REMARK  129  A    between atoms: _316  and  _317
REMARK  130  A    between atoms: _320  and  _322
REMARK  131  A    between atoms: _322  and  _323
REMARK  132  A    between atoms: _322  and  _325
REMARK  133  A    between atoms: _325  and  _326
REMARK  134  A    between atoms: _328  and  _330
REMARK  135  A    between atoms: _330  and  _331
REMARK  136  A    between atoms: _330  and  _333
REMARK  137  A    between atoms: _333  and  _334
REMARK  138  A    between atoms: _334  and  _335
REMARK  139  A    between atoms: _338  and  _340
REMARK  140  A    between atoms: _340  and  _341
REMARK  141  A    between atoms: _343  and  _345
REMARK  142  A    between atoms: _345  and  _346
REMARK  143  A    between atoms: _348  and  _350
REMARK  144  A    between atoms: _350  and  _351
REMARK  145  A    between atoms: _350  and  _353
REMARK  146  A    between atoms: _353  and  _354
REMARK  147  A    between atoms: _354  and  _355
REMARK  148  A    between atoms: _357  and  _359
REMARK  149  A    between atoms: _359  and  _360
REMARK  150  A    between atoms: _359  and  _362
REMARK  151  A    between atoms: _362  and  _363
REMARK  152  A    between atoms: _366  and  _368
REMARK  153  A    between atoms: _368  and  _369
REMARK  154  A    between atoms: _368  and  _371
REMARK  155  A    between atoms: _371  and  _372
REMARK  156  A    between atoms: _378  and  _380
REMARK  157  A    between atoms: _380  and  _381
REMARK  158  A    between atoms: _380  and  _383
REMARK  159  A    between atoms: _383  and  _384
REMARK  160  A    between atoms: _387  and  _389
REMARK  161  A    between atoms: _389  and  _390
REMARK  162  A    between atoms: _389  and  _392
REMARK  163  A    between atoms: _392  and  _393
REMARK  164  A    between atoms: _396  and  _398
REMARK  165  A    between atoms: _398  and  _399
REMARK  166  A    between atoms: _398  and  _401
REMARK  167  A    between atoms: _401  and  _402
REMARK  168  A    between atoms: _402  and  _403
REMARK  169  A    between atoms: _403  and  _404
REMARK  170  A    between atoms: _414  and  _415
REMARK  171  A    between atoms: _420  and  _422
REMARK  172  A    between atoms: _422  and  _423
REMARK  173  A    between atoms: _422  and  _425
REMARK  174  A    between atoms: _425  and  _426
REMARK  175  A    between atoms: _432  and  _434
REMARK  176  A    between atoms: _434  and  _435
REMARK  177  A    between atoms: _437  and  _439
REMARK  178  A    between atoms: _439  and  _440
REMARK  179  A    between atoms: _439  and  _442
REMARK  180  A    between atoms: _442  and  _443
REMARK  181  A    between atoms: _446  and  _448
REMARK  182  A    between atoms: _448  and  _449
REMARK  183  A    between atoms: _448  and  _451
REMARK  184  A    between atoms: _451  and  _452
REMARK  185  A    between atoms: _458  and  _460
REMARK  186  A    between atoms: _460  and  _461
REMARK  187  A    between atoms: _460  and  _463
REMARK  188  A    between atoms: _463  and  _464
REMARK  189  A    between atoms: _464  and  _465
REMARK  190  A    between atoms: _467  and  _469
REMARK  191  A    between atoms: _469  and  _470
REMARK  192  A    between atoms: _469  and  _472
REMARK  193  A    between atoms: _472  and  _473
REMARK  194  A    between atoms: _473  and  _474
REMARK  195  A    between atoms: _477  and  _479
REMARK  196  A    between atoms: _479  and  _480
REMARK  197  A    between atoms: _479  and  _482
REMARK  198  A    between atoms: _482  and  _483
REMARK  199  A    between atoms: _483  and  _484
REMARK  200  A    between atoms: _484  and  _485
REMARK  201  A    between atoms: _485  and  _486
REMARK  202  A    between atoms: _490  and  _492
REMARK  203  A    between atoms: _492  and  _493
REMARK  204  A    between atoms: _492  and  _495
REMARK  205  A    between atoms: _495  and  _496
REMARK  206  A    between atoms: _502  and  _504
REMARK  207  A    between atoms: _504  and  _505
REMARK  208  A    between atoms: _504  and  _507
REMARK  209  A    between atoms: _510  and  _512
REMARK  210  A    between atoms: _512  and  _513
REMARK  211  A    between atoms: _512  and  _515
REMARK  212  A    between atoms: _515  and  _516
REMARK  213  A    between atoms: _521  and  _523
REMARK  214  A    between atoms: _523  and  _524
REMARK  215  A    between atoms: _523  and  _526
REMARK  216  A    between atoms: _529  and  _531
REMARK  217  A    between atoms: _531  and  _532
REMARK  218  A    between atoms: _531  and  _534
REMARK  219  A    between atoms: _534  and  _535
REMARK  220  A    between atoms: _538  and  _540
REMARK  221  A    between atoms: _540  and  _541
REMARK  222  A    between atoms: _540  and  _543
REMARK  223  A    between atoms: _543  and  _544
REMARK  224  A    between atoms: _547  and  _549
REMARK  225  A    between atoms: _549  and  _550
REMARK  226  A    between atoms: _549  and  _552
REMARK  227  A    between atoms: _552  and  _553
REMARK  228  A    between atoms: _556  and  _558
REMARK  229  A    between atoms: _558  and  _559
REMARK  230  A    between atoms: _558  and  _561
REMARK  231  A    between atoms: _561  and  _562
REMARK  232  A    between atoms: _562  and  _563
REMARK  233  A    between atoms: _565  and  _567
REMARK  234  A    between atoms: _567  and  _568
REMARK  235  A    between atoms: _567  and  _570
REMARK  236  A    between atoms: _570  and  _571
REMARK  237  A    between atoms: _573  and  _575
REMARK  238  A    between atoms: _575  and  _576
REMARK  239  A    between atoms: _575  and  _578
REMARK  240  A    between atoms: _578  and  _579
REMARK  241  A    between atoms: _582  and  _584
REMARK  242  A    between atoms: _584  and  _585
REMARK  243  A    between atoms: _584  and  _587
REMARK  244  A    between atoms: _587  and  _588
REMARK  245  A    between atoms: _593  and  _595
REMARK  246  A    between atoms: _595  and  _596
REMARK  247  A    between atoms: _595  and  _598
REMARK  248  A    between atoms: _598  and  _599
REMARK  249  A    between atoms: _602  and  _604
REMARK  250  A    between atoms: _604  and  _605
REMARK  251  A    between atoms: _604  and  _607
REMARK  252  A    between atoms: _607  and  _608
REMARK  253  A    between atoms: _611  and  _613
REMARK  254  A    between atoms: _613  and  _614
REMARK  255  A    between atoms: _613  and  _616
REMARK  256  A    between atoms: _616  and  _617
REMARK  257  A    between atoms: _617  and  _618
REMARK  258  A    between atoms: _623  and  _625
REMARK  259  A    between atoms: _625  and  _626
REMARK  260  A    between atoms: _625  and  _628
REMARK  261  A    between atoms: _628  and  _629
REMARK  262  A    between atoms: _632  and  _634
REMARK  263  A    between atoms: _634  and  _635
REMARK  264  A    between atoms: _634  and  _637
REMARK  265  A    between atoms: _637  and  _638
REMARK  266  A    between atoms: _643  and  _644
REMARK                            x       y       z     vdW  Elec       q    Type
REMARK                         _______ _______ _______ _____ _____    ______ ____
ROOT
ATOM      1  CA  GLY A   1       4.792  -1.401  -1.474  0.00  0.00    +0.156 C 
ENDROOT
BRANCH   1   2
ATOM      2  N   GLY A   1       5.608  -0.243  -1.780  0.00  0.00    -0.238 NA
ATOM      3  H   GLY A   1       6.278   0.122  -1.073  0.00  0.00    +0.142 HD
ENDBRANCH   1   2
BRANCH   1   4
ATOM      4  C   GLY A   1       4.046  -1.251  -0.157  0.00  0.00    +0.226 C 
ATOM      5  O   GLY A   1       4.384  -0.404   0.673  0.00  0.00    -0.287 OA
ENDBRANCH   1   4
TORSDOF 2
REMARK  Name = ../refined-set-2016/1fm9/1fm9_pocket.pdb
REMARK  266 active torsions:
REMARK  status: ('A' for Active; 'I' for Inactive)
REMARK    1  A    between atoms: _1  and  _3
REMARK    2  A    between atoms: _3  and  _4
REMARK    3  A    between atoms: _3  and  _6
REMARK    4  A    between atoms: _6  and  _7
REMARK    5  A    between atoms: _10  and  _12
REMARK    6  A    between atoms: _12  and  _13
REMARK    7  A    between atoms: _12  and  _15
REMARK    8  A    between atoms: _15  and  _16
REMARK    9  A    between atoms: _19  and  _21
REMARK   10  A    between atoms: _21  and  _22
REMARK   11  A    between atoms: _24  and  _26
REMARK   12  A    between atoms: _26  and  _27
REMARK   13  A    between atoms: _26  and  _29
REMARK   14  A    between atoms: _29  and  _30
REMARK   15  A    between atoms: _30  and  _31
REMARK   16  A    between atoms: _34  and  _36
REMARK   17  A    between atoms: _36  and  _37
REMARK   18  A    between atoms: _36  and  _39
REMARK   19  A    between atoms: _39  and  _40
REMARK   20  A    between atoms: _44  and  _45
REMARK   21  A    between atoms: _50  and  _52
REMARK   22  A    between atoms: _52  and  _53
REMARK   23  A    between atoms: _52  and  _55
REMARK   24  A    between atoms: _55  and  _56
REMARK   25  A    between atoms: _59  and  _61
REMARK   26  A    between atoms: _61  and  _62
REMARK   27  A    between atoms: _61  and  _64
REMARK   28  A    between atoms: _67  and  _69
REMARK   29  A    between atoms: _69  and  _70
REMARK   30  A    between atoms: _73  and  _75
REMARK   31  A    between atoms: _75  and  _76
REMARK   32  A    between atoms: _75  and  _78
REMARK   33  A    between atoms: _78  and  _79
REMARK   34  A    between atoms: _82  and  _84
REMARK   35  A    between atoms: _84  and  _85
REMARK   36  A    between atoms: _84  and  _87
REMARK   37  A    between atoms: _87  and  _88
REMARK   38  A    between atoms: _88  and  _89
REMARK   39  A    between atoms: _89  and  _90
REMARK   40  A    between atoms: _99  and  _101
REMARK   41  A    between atoms: _101  and  _102
REMARK   42  A    between atoms: _101  and  _104
REMARK   43  A    between atoms: _104  and  _105
REMARK   44  A    between atoms: _108  and  _110
REMARK   45  A    between atoms: _110  and  _111
REMARK   46  A    between atoms: _110  and  _113
REMARK   47  A    between atoms: _113  and  _114
REMARK   48  A    between atoms: _120  and  _122
REMARK   49  A    between atoms: _122  and  _123
REMARK   50  A    between atoms: _122  and  _125
REMARK   51  A    between atoms: _125  and  _126
REMARK   52  A    between atoms: _126  and  _127
REMARK   53  A    between atoms: _132  and  _134
REMARK   54  A    between atoms: _134  and  _135
REMARK   55  A    between atoms: _137  and  _139
REMARK   56  A    between atoms: _139  and  _140
REMARK   57  A    between atoms: _139  and  _142
REMARK   58  A    between atoms: _144  and  _146
REMARK   59  A    between atoms: _146  and  _147
REMARK   60  A    between atoms: _146  and  _149
REMARK   61  A    between atoms: _149  and  _150
REMARK   62  A    between atoms: _150  and  _151
REMARK   63  A    between atoms: _156  and  _158
REMARK   64  A    between atoms: _158  and  _159
REMARK   65  A    between atoms: _158  and  _161
REMARK   66  A    between atoms: _161  and  _162
REMARK   67  A    between atoms: _168  and  _170
REMARK   68  A    between atoms: _170  and  _171
REMARK   69  A    between atoms: _170  and  _173
REMARK   70  A    between atoms: _173  and  _174
REMARK   71  A    between atoms: _174  and  _175
REMARK   72  A    between atoms: _175  and  _176
REMARK   73  A    between atoms: _185  and  _187
REMARK   74  A    between atoms: _187  and  _188
REMARK   75  A    between atoms: _187  and  _190
REMARK   76  A    between atoms: _190  and  _191
REMARK   77  A    between atoms: _193  and  _195
REMARK   78  A    between atoms: _195  and  _196
REMARK   79  A    between atoms: _195  and  _198
REMARK   80  A    between atoms: _201  and  _203
REMARK   81  A    between atoms: _203  and  _204
REMARK   82  A    between atoms: _203  and  _206
REMARK   83  A    between atoms: _206  and  _207
REMARK   84  A    between atoms: _207  and  _208
REMARK   85  A    between atoms: _211  and  _213
REMARK   86  A    between atoms: _213  and  _214
REMARK   87  A    between atoms: _217  and  _219
REMARK   88  A    between atoms: _219  and  _220
REMARK   89  A    between atoms: _219  and  _222
REMARK   90  A    between atoms: _225  and  _227
REMARK   91  A    between atoms: _227  and  _228
REMARK   92  A    between atoms: _227  and  _230
REMARK   93  A    between atoms: _233  and  _235
REMARK   94  A    between atoms: _235  and  _236
REMARK   95  A    between atoms: _235  and  _238
REMARK   96  A    between atoms: _238  and  _239
REMARK   97  A    between atoms: _244  and  _246
REMARK   98  A    between atoms: _246  and  _247
REMARK   99  A    between atoms: _246  and  _249
REMARK  100  A    between atoms: _249  and  _250
REMARK  101  A    between atoms: _253  and  _255
REMARK  102  A    between atoms: _255  and  _256
REMARK  103  A    between atoms: _255  and  _258
REMARK  104  A    between atoms: _258  and  _259
REMARK  105  A    between atoms: _264  and  _265
REMARK  106  A    between atoms: _267  and  _269
REMARK  107  A    between atoms: _269  and  _270
REMARK  108  A    between atoms: _269  and  _272
REMARK  109  A    between atoms: _272  and  _273
REMARK  110  A    between atoms: _276  and  _278
REMARK  111  A    between atoms: _278  and  _279
REMARK  112  A    between atoms: _278  and  _281
REMARK  113  A    between atoms: _281  and  _282
REMARK  114  A    between atoms: _285  and  _287
REMARK  115  A    between atoms: _287  and  _288
REMARK  116  A    between atoms: _287  and  _290
REMARK  117  A    between atoms: _290  and  _291
REMARK  118  A    between atoms: _291  and  _292
REMARK  119  A    between atoms: _294  and  _296
REMARK  120  A    between atoms: _296  and  _297
REMARK  121  A    between atoms: _296  and  _299
REMARK  122  A    between atoms: _302  and  _304
REMARK  123  A    between atoms: _304  and  _305
REMARK  124  A    between atoms: _304  and  _307
REMARK  125  A    between atoms: _307  and  _308
REMARK  126  A    between atoms: _311  and  _313
REMARK  127  A    between atoms: _313  and  _314
REMARK  128  A    between atoms: _313  and  _316
REMARK  129  A    between atoms: _316  and  _317
REMARK  130  A    between atoms: _320  and  _322
REMARK  131  A    between atoms: _322  and  _323
REMARK  132  A    between atoms: _322  and  _325
REMARK  133  A    between atoms: _325  and  _326
REMARK  134  A    between atoms: _328  and  _330
REMARK  135  A    between atoms: _330  and  _331
REMARK  136  A    between atoms: _330  and  _333
REMARK  137  A    between atoms: _333  and  _334
REMARK  138  A    between atoms: _334  and  _335
REMARK  139  A    between atoms: _338  and  _340
REMARK  140  A    between atoms: _340  and  _341
REMARK  141  A    between atoms: _343  and  _345
REMARK  142  A    between atoms: _345  and  _346
REMARK  143  A    between atoms: _348  and  _350
REMARK  144  A    between atoms: _350  and  _351
REMARK  145  A    between atoms: _350  and  _353
REMARK  146  A    between atoms: _353  and  _354
REMARK  147  A    between atoms: _354  and  _355
REMARK  148  A    between atoms: _357  and  _359
REMARK  149  A    between atoms: _359  and  _360
REMARK  150  A    between atoms: _359  and  _362
REMARK  151  A    between atoms: _362  and  _363
REMARK  152  A    between atoms: _366  and  _368
REMARK  153  A    between atoms: _368  and  _369
REMARK  154  A    between atoms: _368  and  _371
REMARK  155  A    between atoms: _371  and  _372
REMARK  156  A    between atoms: _378  and  _380
REMARK  157  A    between atoms: _380  and  _381
REMARK  158  A    between atoms: _380  and  _383
REMARK  159  A    between atoms: _383  and  _384
REMARK  160  A    between atoms: _387  and  _389
REMARK  161  A    between atoms: _389  and  _390
REMARK  162  A    between atoms: _389  and  _392
REMARK  163  A    between atoms: _392  and  _393
REMARK  164  A    between atoms: _396  and  _398
REMARK  165  A    between atoms: _398  and  _399
REMARK  166  A    between atoms: _398  and  _401
REMARK  167  A    between atoms: _401  and  _402
REMARK  168  A    between atoms: _402  and  _403
REMARK  169  A    between atoms: _403  and  _404
REMARK  170  A    between atoms: _414  and  _415
REMARK  171  A    between atoms: _420  and  _422
REMARK  172  A    between atoms: _422  and  _423
REMARK  173  A    between atoms: _422  and  _425
REMARK  174  A    between atoms: _425  and  _426
REMARK  175  A    between atoms: _432  and  _434
REMARK  176  A    between atoms: _434  and  _435
REMARK  177  A    between atoms: _437  and  _439
REMARK  178  A    between atoms: _439  and  _440
REMARK  179  A    between atoms: _439  and  _442
REMARK  180  A    between atoms: _442  and  _443
REMARK  181  A    between atoms: _446  and  _448
REMARK  182  A    between atoms: _448  and  _449
REMARK  183  A    between atoms: _448  and  _451
REMARK  184  A    between atoms: _451  and  _452
REMARK  185  A    between atoms: _458  and  _460
REMARK  186  A    between atoms: _460  and  _461
REMARK  187  A    between atoms: _460  and  _463
REMARK  188  A    between atoms: _463  and  _464
REMARK  189  A    between atoms: _464  and  _465
REMARK  190  A    between atoms: _467  and  _469
REMARK  191  A    between atoms: _469  and  _470
REMARK  192  A    between atoms: _469  and  _472
REMARK  193  A    between atoms: _472  and  _473
REMARK  194  A    between atoms: _473  and  _474
REMARK  195  A    between atoms: _477  and  _479
REMARK  196  A    between atoms: _479  and  _480
REMARK  197  A    between atoms: _479  and  _482
REMARK  198  A    between atoms: _482  and  _483
REMARK  199  A    between atoms: _483  and  _484
REMARK  200  A    between atoms: _484  and  _485
REMARK  201  A    between atoms: _485  and  _486
REMARK  202  A    between atoms: _490  and  _492
REMARK  203  A    between atoms: _492  and  _493
REMARK  204  A    between atoms: _492  and  _495
REMARK  205  A    between atoms: _495  and  _496
REMARK  206  A    between atoms: _502  and  _504
REMARK  207  A    between atoms: _504  and  _505
REMARK  208  A    between atoms: _504  and  _507
REMARK  209  A    between atoms: _510  and  _512
REMARK  210  A    between atoms: _512  and  _513
REMARK  211  A    between atoms: _512  and  _515
REMARK  212  A    between atoms: _515  and  _516
REMARK  213  A    between atoms: _521  and  _523
REMARK  214  A    between atoms: _523  and  _524
REMARK  215  A    between atoms: _523  and  _526
REMARK  216  A    between atoms: _529  and  _531
REMARK  217  A    between atoms: _531  and  _532
REMARK  218  A    between atoms: _531  and  _534
REMARK  219  A    between atoms: _534  and  _535
REMARK  220  A    between atoms: _538  and  _540
REMARK  221  A    between atoms: _540  and  _541
REMARK  222  A    between atoms: _540  and  _543
REMARK  223  A    between atoms: _543  and  _544
REMARK  224  A    between atoms: _547  and  _549
REMARK  225  A    between atoms: _549  and  _550
REMARK  226  A    between atoms: _549  and  _552
REMARK  227  A    between atoms: _552  and  _553
REMARK  228  A    between atoms: _556  and  _558
REMARK  229  A    between atoms: _558  and  _559
REMARK  230  A    between atoms: _558  and  _561
REMARK  231  A    between atoms: _561  and  _562
REMARK  232  A    between atoms: _562  and  _563
REMARK  233  A    between atoms: _565  and  _567
REMARK  234  A    between atoms: _567  and  _568
REMARK  235  A    between atoms: _567  and  _570
REMARK  236  A    between atoms: _570  and  _571
REMARK  237  A    between atoms: _573  and  _575
REMARK  238  A    between atoms: _575  and  _576
REMARK  239  A    between atoms: _575  and  _578
REMARK  240  A    between atoms: _578  and  _579
REMARK  241  A    between atoms: _582  and  _584
REMARK  242  A    between atoms: _584  and  _585
REMARK  243  A    between atoms: _584  and  _587
REMARK  244  A    between atoms: _587  and  _588
REMARK  245  A    between atoms: _593  and  _595
REMARK  246  A    between atoms: _595  and  _596
REMARK  247  A    between atoms: _595  and  _598
REMARK  248  A    between atoms: _598  and  _599
REMARK  249  A    between atoms: _602  and  _604
REMARK  250  A    between atoms: _604  and  _605
REMARK  251  A    between atoms: _604  and  _607
REMARK  252  A    between atoms: _607  and  _608
REMARK  253  A    between atoms: _611  and  _613
REMARK  254  A    between atoms: _613  and  _614
REMARK  255  A    between atoms: _613  and  _616
REMARK  256  A    between atoms: _616  and  _617
REMARK  257  A    between atoms: _617  and  _618
REMARK  258  A    between atoms: _623  and  _625
REMARK  259  A    between atoms: _625  and  _626
REMARK  260  A    between atoms: _625  and  _628
REMARK  261  A    between atoms: _628  and  _629
REMARK  262  A    between atoms: _632  and  _634
REMARK  263  A    between atoms: _634  and  _635
REMARK  264  A    between atoms: _634  and  _637
REMARK  265  A    between atoms: _637  and  _638
REMARK  266  A    between atoms: _643  and  _644
REMARK                            x       y       z     vdW  Elec       q    Type
REMARK                         _______ _______ _______ _____ _____    ______ ____
ROOT
ATOM      1  C   MET A   1       1.279  -5.435   4.160  0.00  0.00    +0.238 C 
ATOM      2  O   MET A   1       1.337  -4.704   5.152  0.00  0.00    -0.274 OA
ATOM      3  N   THR A   2       0.291  -6.300   3.950  0.00  0.00    -0.296 N 
ATOM      4  H   THR A   2       0.317  -6.901   3.102  0.00  0.00    +0.150 HD
ENDROOT
BRANCH   1   5
ATOM      5  CA  MET A   1       2.365  -5.382   3.084  0.00  0.00    +0.146 C 
BRANCH   5   6
ATOM      6  N   MET A   1       2.511  -4.002   2.653  0.00  0.00    -0.238 NA
ATOM      7  H   MET A   1       3.066  -3.348   3.240  0.00  0.00    +0.142 HD
ENDBRANCH   5   6
BRANCH   5   8
ATOM      8  CB  MET A   1       3.701  -5.891   3.624  0.00  0.00    +0.038 C 
BRANCH   8   9
ATOM      9  CG  MET A   1       3.763  -7.390   3.827  0.00  0.00    +0.060 C 
BRANCH   9  10
ATOM     10  SD  MET A   1       5.442  -8.007   4.020  0.00  0.00    -0.139 S 
ATOM     11  CE  MET A   1       6.232  -7.450   2.466  0.00  0.00    +0.069 C 
ENDBRANCH   9  10
ENDBRANCH   8   9
ENDBRANCH   5   8
ENDBRANCH   1   5
BRANCH   3  12
ATOM     12  CA  THR A   2      -0.831  -6.430   4.878  0.00  0.00    +0.164 C 
BRANCH  12  13
ATOM     13  C   THR A   2      -0.462  -7.096   6.201  0.00  0.00    +0.229 C 
ATOM     14  O   THR A   2       0.376  -7.991   6.253  0.00  0.00    -0.286 OA
ENDBRANCH  12  13
BRANCH  12  15
ATOM     15  CB  THR A   2      -2.001  -7.234   4.241  0.00  0.00    +0.136 C 
ATOM     16  CG2 THR A   2      -1.997  -7.080   2.716  0.00  0.00    +0.034 C 
BRANCH  15  17
ATOM     17  OG1 THR A   2      -1.866  -8.627   4.562  0.00  0.00    -0.382 OA
ATOM     18  HG1 THR A   2      -1.887  -8.741   5.545  0.00  0.00    +0.210 HD
ENDBRANCH  15  17
ENDBRANCH  12  15
ENDBRANCH   3  12
TORSDOF 9
REMARK  Name = ../refined-set-2016/1fm9/1fm9_pocket.pdb
REMARK  266 active torsions:
REMARK  status: ('A' for Active; 'I' for Inactive)
REMARK    1  A    between atoms: _1  and  _3
REMARK    2  A    between atoms: _3  and  _4
REMARK    3  A    between atoms: _3  and  _6
REMARK    4  A    between atoms: _6  and  _7
REMARK    5  A    between atoms: _10  and  _12
REMARK    6  A    between atoms: _12  and  _13
REMARK    7  A    between atoms: _12  and  _15
REMARK    8  A    between atoms: _15  and  _16
REMARK    9  A    between atoms: _19  and  _21
REMARK   10  A    between atoms: _21  and  _22
REMARK   11  A    between atoms: _24  and  _26
REMARK   12  A    between atoms: _26  and  _27
REMARK   13  A    between atoms: _26  and  _29
REMARK   14  A    between atoms: _29  and  _30
REMARK   15  A    between atoms: _30  and  _31
REMARK   16  A    between atoms: _34  and  _36
REMARK   17  A    between atoms: _36  and  _37
REMARK   18  A    between atoms: _36  and  _39
REMARK   19  A    between atoms: _39  and  _40
REMARK   20  A    between atoms: _44  and  _45
REMARK   21  A    between atoms: _50  and  _52
REMARK   22  A    between atoms: _52  and  _53
REMARK   23  A    between atoms: _52  and  _55
REMARK   24  A    between atoms: _55  and  _56
REMARK   25  A    between atoms: _59  and  _61
REMARK   26  A    between atoms: _61  and  _62
REMARK   27  A    between atoms: _61  and  _64
REMARK   28  A    between atoms: _67  and  _69
REMARK   29  A    between atoms: _69  and  _70
REMARK   30  A    between atoms: _73  and  _75
REMARK   31  A    between atoms: _75  and  _76
REMARK   32  A    between atoms: _75  and  _78
REMARK   33  A    between atoms: _78  and  _79
REMARK   34  A    between atoms: _82  and  _84
REMARK   35  A    between atoms: _84  and  _85
REMARK   36  A    between atoms: _84  and  _87
REMARK   37  A    between atoms: _87  and  _88
REMARK   38  A    between atoms: _88  and  _89
REMARK   39  A    between atoms: _89  and  _90
REMARK   40  A    between atoms: _99  and  _101
REMARK   41  A    between atoms: _101  and  _102
REMARK   42  A    between atoms: _101  and  _104
REMARK   43  A    between atoms: _104  and  _105
REMARK   44  A    between atoms: _108  and  _110
REMARK   45  A    between atoms: _110  and  _111
REMARK   46  A    between atoms: _110  and  _113
REMARK   47  A    between atoms: _113  and  _114
REMARK   48  A    between atoms: _120  and  _122
REMARK   49  A    between atoms: _122  and  _123
REMARK   50  A    between atoms: _122  and  _125
REMARK   51  A    between atoms: _125  and  _126
REMARK   52  A    between atoms: _126  and  _127
REMARK   53  A    between atoms: _132  and  _134
REMARK   54  A    between atoms: _134  and  _135
REMARK   55  A    between atoms: _137  and  _139
REMARK   56  A    between atoms: _139  and  _140
REMARK   57  A    between atoms: _139  and  _142
REMARK   58  A    between atoms: _144  and  _146
REMARK   59  A    between atoms: _146  and  _147
REMARK   60  A    between atoms: _146  and  _149
REMARK   61  A    between atoms: _149  and  _150
REMARK   62  A    between atoms: _150  and  _151
REMARK   63  A    between atoms: _156  and  _158
REMARK   64  A    between atoms: _158  and  _159
REMARK   65  A    between atoms: _158  and  _161
REMARK   66  A    between atoms: _161  and  _162
REMARK   67  A    between atoms: _168  and  _170
REMARK   68  A    between atoms: _170  and  _171
REMARK   69  A    between atoms: _170  and  _173
REMARK   70  A    between atoms: _173  and  _174
REMARK   71  A    between atoms: _174  and  _175
REMARK   72  A    between atoms: _175  and  _176
REMARK   73  A    between atoms: _185  and  _187
REMARK   74  A    between atoms: _187  and  _188
REMARK   75  A    between atoms: _187  and  _190
REMARK   76  A    between atoms: _190  and  _191
REMARK   77  A    between atoms: _193  and  _195
REMARK   78  A    between atoms: _195  and  _196
REMARK   79  A    between atoms: _195  and  _198
REMARK   80  A    between atoms: _201  and  _203
REMARK   81  A    between atoms: _203  and  _204
REMARK   82  A    between atoms: _203  and  _206
REMARK   83  A    between atoms: _206  and  _207
REMARK   84  A    between atoms: _207  and  _208
REMARK   85  A    between atoms: _211  and  _213
REMARK   86  A    between atoms: _213  and  _214
REMARK   87  A    between atoms: _217  and  _219
REMARK   88  A    between atoms: _219  and  _220
REMARK   89  A    between atoms: _219  and  _222
REMARK   90  A    between atoms: _225  and  _227
REMARK   91  A    between atoms: _227  and  _228
REMARK   92  A    between atoms: _227  and  _230
REMARK   93  A    between atoms: _233  and  _235
REMARK   94  A    between atoms: _235  and  _236
REMARK   95  A    between atoms: _235  and  _238
REMARK   96  A    between atoms: _238  and  _239
REMARK   97  A    between atoms: _244  and  _246
REMARK   98  A    between atoms: _246  and  _247
REMARK   99  A    between atoms: _246  and  _249
REMARK  100  A    between atoms: _249  and  _250
REMARK  101  A    between atoms: _253  and  _255
REMARK  102  A    between atoms: _255  and  _256
REMARK  103  A    between atoms: _255  and  _258
REMARK  104  A    between atoms: _258  and  _259
REMARK  105  A    between atoms: _264  and  _265
REMARK  106  A    between atoms: _267  and  _269
REMARK  107  A    between atoms: _269  and  _270
REMARK  108  A    between atoms: _269  and  _272
REMARK  109  A    between atoms: _272  and  _273
REMARK  110  A    between atoms: _276  and  _278
REMARK  111  A    between atoms: _278  and  _279
REMARK  112  A    between atoms: _278  and  _281
REMARK  113  A    between atoms: _281  and  _282
REMARK  114  A    between atoms: _285  and  _287
REMARK  115  A    between atoms: _287  and  _288
REMARK  116  A    between atoms: _287  and  _290
REMARK  117  A    between atoms: _290  and  _291
REMARK  118  A    between atoms: _291  and  _292
REMARK  119  A    between atoms: _294  and  _296
REMARK  120  A    between atoms: _296  and  _297
REMARK  121  A    between atoms: _296  and  _299
REMARK  122  A    between atoms: _302  and  _304
REMARK  123  A    between atoms: _304  and  _305
REMARK  124  A    between atoms: _304  and  _307
REMARK  125  A    between atoms: _307  and  _308
REMARK  126  A    between atoms: _311  and  _313
REMARK  127  A    between atoms: _313  and  _314
REMARK  128  A    between atoms: _313  and  _316
REMARK  129  A    between atoms: _316  and  _317
REMARK  130  A    between atoms: _320  and  _322
REMARK  131  A    between atoms: _322  and  _323
REMARK  132  A    between atoms: _322  and  _325
REMARK  133  A    between atoms: _325  and  _326
REMARK  134  A    between atoms: _328  and  _330
REMARK  135  A    between atoms: _330  and  _331
REMARK  136  A    between atoms: _330  and  _333
REMARK  137  A    between atoms: _333  and  _334
REMARK  138  A    between atoms: _334  and  _335
REMARK  139  A    between atoms: _338  and  _340
REMARK  140  A    between atoms: _340  and  _341
REMARK  141  A    between atoms: _343  and  _345
REMARK  142  A    between atoms: _345  and  _346
REMARK  143  A    between atoms: _348  and  _350
REMARK  144  A    between atoms: _350  and  _351
REMARK  145  A    between atoms: _350  and  _353
REMARK  146  A    between atoms: _353  and  _354
REMARK  147  A    between atoms: _354  and  _355
REMARK  148  A    between atoms: _357  and  _359
REMARK  149  A    between atoms: _359  and  _360
REMARK  150  A    between atoms: _359  and  _362
REMARK  151  A    between atoms: _362  and  _363
REMARK  152  A    between atoms: _366  and  _368
REMARK  153  A    between atoms: _368  and  _369
REMARK  154  A    between atoms: _368  and  _371
REMARK  155  A    between atoms: _371  and  _372
REMARK  156  A    between atoms: _378  and  _380
REMARK  157  A    between atoms: _380  and  _381
REMARK  158  A    between atoms: _380  and  _383
REMARK  159  A    between atoms: _383  and  _384
REMARK  160  A    between atoms: _387  and  _389
REMARK  161  A    between atoms: _389  and  _390
REMARK  162  A    between atoms: _389  and  _392
REMARK  163  A    between atoms: _392  and  _393
REMARK  164  A    between atoms: _396  and  _398
REMARK  165  A    between atoms: _398  and  _399
REMARK  166  A    between atoms: _398  and  _401
REMARK  167  A    between atoms: _401  and  _402
REMARK  168  A    between atoms: _402  and  _403
REMARK  169  A    between atoms: _403  and  _404
REMARK  170  A    between atoms: _414  and  _415
REMARK  171  A    between atoms: _420  and  _422
REMARK  172  A    between atoms: _422  and  _423
REMARK  173  A    between atoms: _422  and  _425
REMARK  174  A    between atoms: _425  and  _426
REMARK  175  A    between atoms: _432  and  _434
REMARK  176  A    between atoms: _434  and  _435
REMARK  177  A    between atoms: _437  and  _439
REMARK  178  A    between atoms: _439  and  _440
REMARK  179  A    between atoms: _439  and  _442
REMARK  180  A    between atoms: _442  and  _443
REMARK  181  A    between atoms: _446  and  _448
REMARK  182  A    between atoms: _448  and  _449
REMARK  183  A    between atoms: _448  and  _451
REMARK  184  A    between atoms: _451  and  _452
REMARK  185  A    between atoms: _458  and  _460
REMARK  186  A    between atoms: _460  and  _461
REMARK  187  A    between atoms: _460  and  _463
REMARK  188  A    between atoms: _463  and  _464
REMARK  189  A    between atoms: _464  and  _465
REMARK  190  A    between atoms: _467  and  _469
REMARK  191  A    between atoms: _469  and  _470
REMARK  192  A    between atoms: _469  and  _472
REMARK  193  A    between atoms: _472  and  _473
REMARK  194  A    between atoms: _473  and  _474
REMARK  195  A    between atoms: _477  and  _479
REMARK  196  A    between atoms: _479  and  _480
REMARK  197  A    between atoms: _479  and  _482
REMARK  198  A    between atoms: _482  and  _483
REMARK  199  A    between atoms: _483  and  _484
REMARK  200  A    between atoms: _484  and  _485
REMARK  201  A    between atoms: _485  and  _486
REMARK  202  A    between atoms: _490  and  _492
REMARK  203  A    between atoms: _492  and  _493
REMARK  204  A    between atoms: _492  and  _495
REMARK  205  A    between atoms: _495  and  _496
REMARK  206  A    between atoms: _502  and  _504
REMARK  207  A    between atoms: _504  and  _505
REMARK  208  A    between atoms: _504  and  _507
REMARK  209  A    between atoms: _510  and  _512
REMARK  210  A    between atoms: _512  and  _513
REMARK  211  A    between atoms: _512  and  _515
REMARK  212  A    between atoms: _515  and  _516
REMARK  213  A    between atoms: _521  and  _523
REMARK  214  A    between atoms: _523  and  _524
REMARK  215  A    between atoms: _523  and  _526
REMARK  216  A    between atoms: _529  and  _531
REMARK  217  A    between atoms: _531  and  _532
REMARK  218  A    between atoms: _531  and  _534
REMARK  219  A    between atoms: _534  and  _535
REMARK  220  A    between atoms: _538  and  _540
REMARK  221  A    between atoms: _540  and  _541
REMARK  222  A    between atoms: _540  and  _543
REMARK  223  A    between atoms: _543  and  _544
REMARK  224  A    between atoms: _547  and  _549
REMARK  225  A    between atoms: _549  and  _550
REMARK  226  A    between atoms: _549  and  _552
REMARK  227  A    between atoms: _552  and  _553
REMARK  228  A    between atoms: _556  and  _558
REMARK  229  A    between atoms: _558  and  _559
REMARK  230  A    between atoms: _558  and  _561
REMARK  231  A    between atoms: _561  and  _562
REMARK  232  A    between atoms: _562  and  _563
REMARK  233  A    between atoms: _565  and  _567
REMARK  234  A    between atoms: _567  and  _568
REMARK  235  A    between atoms: _567  and  _570
REMARK  236  A    between atoms: _570  and  _571
REMARK  237  A    between atoms: _573  and  _575
REMARK  238  A    between atoms: _575  and  _576
REMARK  239  A    between atoms: _575  and  _578
REMARK  240  A    between atoms: _578  and  _579
REMARK  241  A    between atoms: _582  and  _584
REMARK  242  A    between atoms: _584  and  _585
REMARK  243  A    between atoms: _584  and  _587
REMARK  244  A    between atoms: _587  and  _588
REMARK  245  A    between atoms: _593  and  _595
REMARK  246  A    between atoms: _595  and  _596
REMARK  247  A    between atoms: _595  and  _598
REMARK  248  A    between atoms: _598  and  _599
REMARK  249  A    between atoms: _602  and  _604
REMARK  250  A    between atoms: _604  and  _605
REMARK  251  A    between atoms: _604  and  _607
REMARK  252  A    between atoms: _607  and  _608
REMARK  253  A    between atoms: _611  and  _613
REMARK  254  A    between atoms: _613  and  _614
REMARK  255  A    between atoms: _613  and  _616
REMARK  256  A    between atoms: _616  and  _617
REMARK  257  A    between atoms: _617  and  _618
REMARK  258  A    between atoms: _623  and  _625
REMARK  259  A    between atoms: _625  and  _626
REMARK  260  A    between atoms: _625  and  _628
REMARK  261  A    between atoms: _628  and  _629
REMARK  262  A    between atoms: _632  and  _634
REMARK  263  A    between atoms: _634  and  _635
REMARK  264  A    between atoms: _634  and  _637
REMARK  265  A    between atoms: _637  and  _638
REMARK  266  A    between atoms: _643  and  _644
REMARK                            x       y       z     vdW  Elec       q    Type
REMARK                         _______ _______ _______ _____ _____    ______ ____
ROOT
ATOM      1  C   PHE A   1       0.861 -11.973   6.563  0.00  0.00    +0.239 C 
ATOM      2  N   LEU A   2       1.385 -10.899   7.148  0.00  0.00    -0.298 N 
ATOM      3  H   LEU A   2       0.956  -9.964   6.999  0.00  0.00    +0.150 HD
ATOM      4  O   PHE A   1       1.333 -13.097   6.692  0.00  0.00    -0.274 OA
ENDROOT
BRANCH   1   5
ATOM      5  CA  PHE A   1      -0.365 -11.742   5.682  0.00  0.00    +0.149 C 
BRANCH   5   6
ATOM      6  N   PHE A   1      -1.402 -10.967   6.356  0.00  0.00    -0.238 NA
ATOM      7  H   PHE A   1      -1.813 -10.144   5.870  0.00  0.00    +0.142 HD
ENDBRANCH   5   6
BRANCH   5   8
ATOM      8  CB  PHE A   1       0.063 -11.018   4.412  0.00  0.00    +0.053 C 
BRANCH   8   9
ATOM      9  CG  PHE A   1       1.334 -11.549   3.811  0.00  0.00    -0.020 A 
ATOM     10  CD2 PHE A   1       2.496 -10.803   3.824  0.00  0.00    -0.004 A 
ATOM     11  CE2 PHE A   1       3.673 -11.284   3.255  0.00  0.00    -0.000 A 
ATOM     12  CZ  PHE A   1       3.682 -12.544   2.658  0.00  0.00    -0.000 A 
ATOM     13  CE1 PHE A   1       2.520 -13.305   2.639  0.00  0.00    -0.000 A 
ATOM     14  CD1 PHE A   1       1.349 -12.815   3.211  0.00  0.00    -0.004 A 
ENDBRANCH   8   9
ENDBRANCH   5   8
ENDBRANCH   1   5
BRANCH   2  15
ATOM     15  CA  LEU A   2       2.563 -11.035   7.999  0.00  0.00    +0.137 C 
BRANCH  15  16
ATOM     16  C   LEU A   2       2.264 -11.960   9.184  0.00  0.00    +0.227 C 
ATOM     17  O   LEU A   2       3.105 -12.765   9.570  0.00  0.00    -0.286 OA
ENDBRANCH  15  16
BRANCH  15  18
ATOM     18  CB  LEU A   2       3.050  -9.656   8.473  0.00  0.00    +0.028 C 
BRANCH  18  19
ATOM     19  CG  LEU A   2       3.784  -8.783   7.443  0.00  0.00    +0.002 C 
ATOM     20  CD2 LEU A   2       3.782  -7.336   7.885  0.00  0.00    +0.000 C 
ATOM     21  CD1 LEU A   2       5.204  -9.281   7.257  0.00  0.00    +0.000 C 
ENDBRANCH  18  19
ENDBRANCH  15  18
ENDBRANCH   2  15
TORSDOF 8
REMARK  Name = ../refined-set-2016/1fm9/1fm9_pocket.pdb
REMARK  266 active torsions:
REMARK  status: ('A' for Active; 'I' for Inactive)
REMARK    1  A    between atoms: _1  and  _3
REMARK    2  A    between atoms: _3  and  _4
REMARK    3  A    between atoms: _3  and  _6
REMARK    4  A    between atoms: _6  and  _7
REMARK    5  A    between atoms: _10  and  _12
REMARK    6  A    between atoms: _12  and  _13
REMARK    7  A    between atoms: _12  and  _15
REMARK    8  A    between atoms: _15  and  _16
REMARK    9  A    between atoms: _19  and  _21
REMARK   10  A    between atoms: _21  and  _22
REMARK   11  A    between atoms: _24  and  _26
REMARK   12  A    between atoms: _26  and  _27
REMARK   13  A    between atoms: _26  and  _29
REMARK   14  A    between atoms: _29  and  _30
REMARK   15  A    between atoms: _30  and  _31
REMARK   16  A    between atoms: _34  and  _36
REMARK   17  A    between atoms: _36  and  _37
REMARK   18  A    between atoms: _36  and  _39
REMARK   19  A    between atoms: _39  and  _40
REMARK   20  A    between atoms: _44  and  _45
REMARK   21  A    between atoms: _50  and  _52
REMARK   22  A    between atoms: _52  and  _53
REMARK   23  A    between atoms: _52  and  _55
REMARK   24  A    between atoms: _55  and  _56
REMARK   25  A    between atoms: _59  and  _61
REMARK   26  A    between atoms: _61  and  _62
REMARK   27  A    between atoms: _61  and  _64
REMARK   28  A    between atoms: _67  and  _69
REMARK   29  A    between atoms: _69  and  _70
REMARK   30  A    between atoms: _73  and  _75
REMARK   31  A    between atoms: _75  and  _76
REMARK   32  A    between atoms: _75  and  _78
REMARK   33  A    between atoms: _78  and  _79
REMARK   34  A    between atoms: _82  and  _84
REMARK   35  A    between atoms: _84  and  _85
REMARK   36  A    between atoms: _84  and  _87
REMARK   37  A    between atoms: _87  and  _88
REMARK   38  A    between atoms: _88  and  _89
REMARK   39  A    between atoms: _89  and  _90
REMARK   40  A    between atoms: _99  and  _101
REMARK   41  A    between atoms: _101  and  _102
REMARK   42  A    between atoms: _101  and  _104
REMARK   43  A    between atoms: _104  and  _105
REMARK   44  A    between atoms: _108  and  _110
REMARK   45  A    between atoms: _110  and  _111
REMARK   46  A    between atoms: _110  and  _113
REMARK   47  A    between atoms: _113  and  _114
REMARK   48  A    between atoms: _120  and  _122
REMARK   49  A    between atoms: _122  and  _123
REMARK   50  A    between atoms: _122  and  _125
REMARK   51  A    between atoms: _125  and  _126
REMARK   52  A    between atoms: _126  and  _127
REMARK   53  A    between atoms: _132  and  _134
REMARK   54  A    between atoms: _134  and  _135
REMARK   55  A    between atoms: _137  and  _139
REMARK   56  A    between atoms: _139  and  _140
REMARK   57  A    between atoms: _139  and  _142
REMARK   58  A    between atoms: _144  and  _146
REMARK   59  A    between atoms: _146  and  _147
REMARK   60  A    between atoms: _146  and  _149
REMARK   61  A    between atoms: _149  and  _150
REMARK   62  A    between atoms: _150  and  _151
REMARK   63  A    between atoms: _156  and  _158
REMARK   64  A    between atoms: _158  and  _159
REMARK   65  A    between atoms: _158  and  _161
REMARK   66  A    between atoms: _161  and  _162
REMARK   67  A    between atoms: _168  and  _170
REMARK   68  A    between atoms: _170  and  _171
REMARK   69  A    between atoms: _170  and  _173
REMARK   70  A    between atoms: _173  and  _174
REMARK   71  A    between atoms: _174  and  _175
REMARK   72  A    between atoms: _175  and  _176
REMARK   73  A    between atoms: _185  and  _187
REMARK   74  A    between atoms: _187  and  _188
REMARK   75  A    between atoms: _187  and  _190
REMARK   76  A    between atoms: _190  and  _191
REMARK   77  A    between atoms: _193  and  _195
REMARK   78  A    between atoms: _195  and  _196
REMARK   79  A    between atoms: _195  and  _198
REMARK   80  A    between atoms: _201  and  _203
REMARK   81  A    between atoms: _203  and  _204
REMARK   82  A    between atoms: _203  and  _206
REMARK   83  A    between atoms: _206  and  _207
REMARK   84  A    between atoms: _207  and  _208
REMARK   85  A    between atoms: _211  and  _213
REMARK   86  A    between atoms: _213  and  _214
REMARK   87  A    between atoms: _217  and  _219
REMARK   88  A    between atoms: _219  and  _220
REMARK   89  A    between atoms: _219  and  _222
REMARK   90  A    between atoms: _225  and  _227
REMARK   91  A    between atoms: _227  and  _228
REMARK   92  A    between atoms: _227  and  _230
REMARK   93  A    between atoms: _233  and  _235
REMARK   94  A    between atoms: _235  and  _236
REMARK   95  A    between atoms: _235  and  _238
REMARK   96  A    between atoms: _238  and  _239
REMARK   97  A    between atoms: _244  and  _246
REMARK   98  A    between atoms: _246  and  _247
REMARK   99  A    between atoms: _246  and  _249
REMARK  100  A    between atoms: _249  and  _250
REMARK  101  A    between atoms: _253  and  _255
REMARK  102  A    between atoms: _255  and  _256
REMARK  103  A    between atoms: _255  and  _258
REMARK  104  A    between atoms: _258  and  _259
REMARK  105  A    between atoms: _264  and  _265
REMARK  106  A    between atoms: _267  and  _269
REMARK  107  A    between atoms: _269  and  _270
REMARK  108  A    between atoms: _269  and  _272
REMARK  109  A    between atoms: _272  and  _273
REMARK  110  A    between atoms: _276  and  _278
REMARK  111  A    between atoms: _278  and  _279
REMARK  112  A    between atoms: _278  and  _281
REMARK  113  A    between atoms: _281  and  _282
REMARK  114  A    between atoms: _285  and  _287
REMARK  115  A    between atoms: _287  and  _288
REMARK  116  A    between atoms: _287  and  _290
REMARK  117  A    between atoms: _290  and  _291
REMARK  118  A    between atoms: _291  and  _292
REMARK  119  A    between atoms: _294  and  _296
REMARK  120  A    between atoms: _296  and  _297
REMARK  121  A    between atoms: _296  and  _299
REMARK  122  A    between atoms: _302  and  _304
REMARK  123  A    between atoms: _304  and  _305
REMARK  124  A    between atoms: _304  and  _307
REMARK  125  A    between atoms: _307  and  _308
REMARK  126  A    between atoms: _311  and  _313
REMARK  127  A    between atoms: _313  and  _314
REMARK  128  A    between atoms: _313  and  _316
REMARK  129  A    between atoms: _316  and  _317
REMARK  130  A    between atoms: _320  and  _322
REMARK  131  A    between atoms: _322  and  _323
REMARK  132  A    between atoms: _322  and  _325
REMARK  133  A    between atoms: _325  and  _326
REMARK  134  A    between atoms: _328  and  _330
REMARK  135  A    between atoms: _330  and  _331
REMARK  136  A    between atoms: _330  and  _333
REMARK  137  A    between atoms: _333  and  _334
REMARK  138  A    between atoms: _334  and  _335
REMARK  139  A    between atoms: _338  and  _340
REMARK  140  A    between atoms: _340  and  _341
REMARK  141  A    between atoms: _343  and  _345
REMARK  142  A    between atoms: _345  and  _346
REMARK  143  A    between atoms: _348  and  _350
REMARK  144  A    between atoms: _350  and  _351
REMARK  145  A    between atoms: _350  and  _353
REMARK  146  A    between atoms: _353  and  _354
REMARK  147  A    between atoms: _354  and  _355
REMARK  148  A    between atoms: _357  and  _359
REMARK  149  A    between atoms: _359  and  _360
REMARK  150  A    between atoms: _359  and  _362
REMARK  151  A    between atoms: _362  and  _363
REMARK  152  A    between atoms: _366  and  _368
REMARK  153  A    between atoms: _368  and  _369
REMARK  154  A    between atoms: _368  and  _371
REMARK  155  A    between atoms: _371  and  _372
REMARK  156  A    between atoms: _378  and  _380
REMARK  157  A    between atoms: _380  and  _381
REMARK  158  A    between atoms: _380  and  _383
REMARK  159  A    between atoms: _383  and  _384
REMARK  160  A    between atoms: _387  and  _389
REMARK  161  A    between atoms: _389  and  _390
REMARK  162  A    between atoms: _389  and  _392
REMARK  163  A    between atoms: _392  and  _393
REMARK  164  A    between atoms: _396  and  _398
REMARK  165  A    between atoms: _398  and  _399
REMARK  166  A    between atoms: _398  and  _401
REMARK  167  A    between atoms: _401  and  _402
REMARK  168  A    between atoms: _402  and  _403
REMARK  169  A    between atoms: _403  and  _404
REMARK  170  A    between atoms: _414  and  _415
REMARK  171  A    between atoms: _420  and  _422
REMARK  172  A    between atoms: _422  and  _423
REMARK  173  A    between atoms: _422  and  _425
REMARK  174  A    between atoms: _425  and  _426
REMARK  175  A    between atoms: _432  and  _434
REMARK  176  A    between atoms: _434  and  _435
REMARK  177  A    between atoms: _437  and  _439
REMARK  178  A    between atoms: _439  and  _440
REMARK  179  A    between atoms: _439  and  _442
REMARK  180  A    between atoms: _442  and  _443
REMARK  181  A    between atoms: _446  and  _448
REMARK  182  A    between atoms: _448  and  _449
REMARK  183  A    between atoms: _448  and  _451
REMARK  184  A    between atoms: _451  and  _452
REMARK  185  A    between atoms: _458  and  _460
REMARK  186  A    between atoms: _460  and  _461
REMARK  187  A    between atoms: _460  and  _463
REMARK  188  A    between atoms: _463  and  _464
REMARK  189  A    between atoms: _464  and  _465
REMARK  190  A    between atoms: _467  and  _469
REMARK  191  A    between atoms: _469  and  _470
REMARK  192  A    between atoms: _469  and  _472
REMARK  193  A    between atoms: _472  and  _473
REMARK  194  A    between atoms: _473  and  _474
REMARK  195  A    between atoms: _477  and  _479
REMARK  196  A    between atoms: _479  and  _480
REMARK  197  A    between atoms: _479  and  _482
REMARK  198  A    between atoms: _482  and  _483
REMARK  199  A    between atoms: _483  and  _484
REMARK  200  A    between atoms: _484  and  _485
REMARK  201  A    between atoms: _485  and  _486
REMARK  202  A    between atoms: _490  and  _492
REMARK  203  A    between atoms: _492  and  _493
REMARK  204  A    between atoms: _492  and  _495
REMARK  205  A    between atoms: _495  and  _496
REMARK  206  A    between atoms: _502  and  _504
REMARK  207  A    between atoms: _504  and  _505
REMARK  208  A    between atoms: _504  and  _507
REMARK  209  A    between atoms: _510  and  _512
REMARK  210  A    between atoms: _512  and  _513
REMARK  211  A    between atoms: _512  and  _515
REMARK  212  A    between atoms: _515  and  _516
REMARK  213  A    between atoms: _521  and  _523
REMARK  214  A    between atoms: _523  and  _524
REMARK  215  A    between atoms: _523  and  _526
REMARK  216  A    between atoms: _529  and  _531
REMARK  217  A    between atoms: _531  and  _532
REMARK  218  A    between atoms: _531  and  _534
REMARK  219  A    between atoms: _534  and  _535
REMARK  220  A    between atoms: _538  and  _540
REMARK  221  A    between atoms: _540  and  _541
REMARK  222  A    between atoms: _540  and  _543
REMARK  223  A    between atoms: _543  and  _544
REMARK  224  A    between atoms: _547  and  _549
REMARK  225  A    between atoms: _549  and  _550
REMARK  226  A    between atoms: _549  and  _552
REMARK  227  A    between atoms: _552  and  _553
REMARK  228  A    between atoms: _556  and  _558
REMARK  229  A    between atoms: _558  and  _559
REMARK  230  A    between atoms: _558  and  _561
REMARK  231  A    between atoms: _561  and  _562
REMARK  232  A    between atoms: _562  and  _563
REMARK  233  A    between atoms: _565  and  _567
REMARK  234  A    between atoms: _567  and  _568
REMARK  235  A    between atoms: _567  and  _570
REMARK  236  A    between atoms: _570  and  _571
REMARK  237  A    between atoms: _573  and  _575
REMARK  238  A    between atoms: _575  and  _576
REMARK  239  A    between atoms: _575  and  _578
REMARK  240  A    between atoms: _578  and  _579
REMARK  241  A    between atoms: _582  and  _584
REMARK  242  A    between atoms: _584  and  _585
REMARK  243  A    between atoms: _584  and  _587
REMARK  244  A    between atoms: _587  and  _588
REMARK  245  A    between atoms: _593  and  _595
REMARK  246  A    between atoms: _595  and  _596
REMARK  247  A    between atoms: _595  and  _598
REMARK  248  A    between atoms: _598  and  _599
REMARK  249  A    between atoms: _602  and  _604
REMARK  250  A    between atoms: _604  and  _605
REMARK  251  A    between atoms: _604  and  _607
REMARK  252  A    between atoms: _607  and  _608
REMARK  253  A    between atoms: _611  and  _613
REMARK  254  A    between atoms: _613  and  _614
REMARK  255  A    between atoms: _613  and  _616
REMARK  256  A    between atoms: _616  and  _617
REMARK  257  A    between atoms: _617  and  _618
REMARK  258  A    between atoms: _623  and  _625
REMARK  259  A    between atoms: _625  and  _626
REMARK  260  A    between atoms: _625  and  _628
REMARK  261  A    between atoms: _628  and  _629
REMARK  262  A    between atoms: _632  and  _634
REMARK  263  A    between atoms: _634  and  _635
REMARK  264  A    between atoms: _634  and  _637
REMARK  265  A    between atoms: _637  and  _638
REMARK  266  A    between atoms: _643  and  _644
REMARK                            x       y       z     vdW  Elec       q    Type
REMARK                         _______ _______ _______ _____ _____    ______ ____
ROOT
ATOM      1  CA  ARG A   2       5.234 -19.818   9.531  0.00  0.00    +0.137 C 
ENDROOT
BRANCH   1   4
ATOM      2  C   LEU A   1       4.093 -17.739   9.063  0.00  0.00    +0.238 C 
ATOM      3  O   LEU A   1       3.310 -17.928   9.994  0.00  0.00    -0.274 OA
ATOM      4  N   ARG A   2       5.074 -18.585   8.766  0.00  0.00    -0.298 N 
ATOM      5  H   ARG A   2       5.729 -18.368   7.987  0.00  0.00    +0.150 HD
BRANCH   2   6
ATOM      6  CA  LEU A   1       3.967 -16.482   8.194  0.00  0.00    +0.145 C 
BRANCH   6   7
ATOM      7  N   LEU A   1       2.683 -15.857   8.519  0.00  0.00    -0.238 NA
ATOM      8  H   LEU A   1       2.664 -14.919   8.967  0.00  0.00    +0.142 HD
ENDBRANCH   6   7
BRANCH   6   9
ATOM      9  CB  LEU A   1       5.124 -15.507   8.445  0.00  0.00    +0.026 C 
BRANCH   9  10
ATOM     10  CG  LEU A   1       5.243 -14.302   7.496  0.00  0.00    +0.002 C 
ATOM     11  CD2 LEU A   1       6.312 -13.313   7.974  0.00  0.00    +0.000 C 
ATOM     12  CD1 LEU A   1       5.578 -14.812   6.097  0.00  0.00    +0.000 C 
ENDBRANCH   9  10
ENDBRANCH   6   9
ENDBRANCH   2   6
ENDBRANCH   1   4
BRANCH   1  13
ATOM     13  C   ARG A   2       5.815 -19.662  10.942  0.00  0.00    +0.227 C 
ATOM     14  O   ARG A   2       6.037 -18.550  11.411  0.00  0.00    -0.286 OA
ENDBRANCH   1  13
BRANCH   1  15
ATOM     15  CB  ARG A   2       6.054 -20.838   8.721  0.00  0.00    +0.031 C 
BRANCH  15  16
ATOM     16  CG  ARG A   2       7.560 -20.627   8.659  0.00  0.00    +0.045 C 
BRANCH  16  17
ATOM     17  CD  ARG A   2       8.204 -21.936   8.192  0.00  0.00    +0.174 C 
BRANCH  17  18
ATOM     18  NE  ARG A   2       9.608 -22.100   8.565  0.00  0.00    -0.265 N 
ATOM     19  CZ  ARG A   2      10.106 -21.866   9.779  0.00  0.00    +0.342 C 
ATOM     20  NH2 ARG A   2       9.323 -21.441  10.751  0.00  0.00    -0.292 N 
ATOM     21 HH21 ARG A   2       9.718 -21.260  11.696  0.00  0.00    +0.255 HD
ATOM     22 HH22 ARG A   2       8.310 -21.286  10.573  0.00  0.00    +0.255 HD
ATOM     23  NH1 ARG A   2      11.395 -22.076  10.029  0.00  0.00    -0.292 N 
ATOM     24 HH11 ARG A   2      11.777 -21.891  10.978  0.00  0.00    +0.255 HD
ATOM     25 HH12 ARG A   2      12.021 -22.425   9.275  0.00  0.00    +0.255 HD
ATOM     26  HE  ARG A   2      10.267 -22.423   7.828  0.00  0.00    +0.259 HD
ENDBRANCH  17  18
ENDBRANCH  16  17
ENDBRANCH  15  16
ENDBRANCH   1  15
TORSDOF 10
REMARK  Name = ../refined-set-2016/1fm9/1fm9_pocket.pdb
REMARK  266 active torsions:
REMARK  status: ('A' for Active; 'I' for Inactive)
REMARK    1  A    between atoms: _1  and  _3
REMARK    2  A    between atoms: _3  and  _4
REMARK    3  A    between atoms: _3  and  _6
REMARK    4  A    between atoms: _6  and  _7
REMARK    5  A    between atoms: _10  and  _12
REMARK    6  A    between atoms: _12  and  _13
REMARK    7  A    between atoms: _12  and  _15
REMARK    8  A    between atoms: _15  and  _16
REMARK    9  A    between atoms: _19  and  _21
REMARK   10  A    between atoms: _21  and  _22
REMARK   11  A    between atoms: _24  and  _26
REMARK   12  A    between atoms: _26  and  _27
REMARK   13  A    between atoms: _26  and  _29
REMARK   14  A    between atoms: _29  and  _30
REMARK   15  A    between atoms: _30  and  _31
REMARK   16  A    between atoms: _34  and  _36
REMARK   17  A    between atoms: _36  and  _37
REMARK   18  A    between atoms: _36  and  _39
REMARK   19  A    between atoms: _39  and  _40
REMARK   20  A    between atoms: _44  and  _45
REMARK   21  A    between atoms: _50  and  _52
REMARK   22  A    between atoms: _52  and  _53
REMARK   23  A    between atoms: _52  and  _55
REMARK   24  A    between atoms: _55  and  _56
REMARK   25  A    between atoms: _59  and  _61
REMARK   26  A    between atoms: _61  and  _62
REMARK   27  A    between atoms: _61  and  _64
REMARK   28  A    between atoms: _67  and  _69
REMARK   29  A    between atoms: _69  and  _70
REMARK   30  A    between atoms: _73  and  _75
REMARK   31  A    between atoms: _75  and  _76
REMARK   32  A    between atoms: _75  and  _78
REMARK   33  A    between atoms: _78  and  _79
REMARK   34  A    between atoms: _82  and  _84
REMARK   35  A    between atoms: _84  and  _85
REMARK   36  A    between atoms: _84  and  _87
REMARK   37  A    between atoms: _87  and  _88
REMARK   38  A    between atoms: _88  and  _89
REMARK   39  A    between atoms: _89  and  _90
REMARK   40  A    between atoms: _99  and  _101
REMARK   41  A    between atoms: _101  and  _102
REMARK   42  A    between atoms: _101  and  _104
REMARK   43  A    between atoms: _104  and  _105
REMARK   44  A    between atoms: _108  and  _110
REMARK   45  A    between atoms: _110  and  _111
REMARK   46  A    between atoms: _110  and  _113
REMARK   47  A    between atoms: _113  and  _114
REMARK   48  A    between atoms: _120  and  _122
REMARK   49  A    between atoms: _122  and  _123
REMARK   50  A    between atoms: _122  and  _125
REMARK   51  A    between atoms: _125  and  _126
REMARK   52  A    between atoms: _126  and  _127
REMARK   53  A    between atoms: _132  and  _134
REMARK   54  A    between atoms: _134  and  _135
REMARK   55  A    between atoms: _137  and  _139
REMARK   56  A    between atoms: _139  and  _140
REMARK   57  A    between atoms: _139  and  _142
REMARK   58  A    between atoms: _144  and  _146
REMARK   59  A    between atoms: _146  and  _147
REMARK   60  A    between atoms: _146  and  _149
REMARK   61  A    between atoms: _149  and  _150
REMARK   62  A    between atoms: _150  and  _151
REMARK   63  A    between atoms: _156  and  _158
REMARK   64  A    between atoms: _158  and  _159
REMARK   65  A    between atoms: _158  and  _161
REMARK   66  A    between atoms: _161  and  _162
REMARK   67  A    between atoms: _168  and  _170
REMARK   68  A    between atoms: _170  and  _171
REMARK   69  A    between atoms: _170  and  _173
REMARK   70  A    between atoms: _173  and  _174
REMARK   71  A    between atoms: _174  and  _175
REMARK   72  A    between atoms: _175  and  _176
REMARK   73  A    between atoms: _185  and  _187
REMARK   74  A    between atoms: _187  and  _188
REMARK   75  A    between atoms: _187  and  _190
REMARK   76  A    between atoms: _190  and  _191
REMARK   77  A    between atoms: _193  and  _195
REMARK   78  A    between atoms: _195  and  _196
REMARK   79  A    between atoms: _195  and  _198
REMARK   80  A    between atoms: _201  and  _203
REMARK   81  A    between atoms: _203  and  _204
REMARK   82  A    between atoms: _203  and  _206
REMARK   83  A    between atoms: _206  and  _207
REMARK   84  A    between atoms: _207  and  _208
REMARK   85  A    between atoms: _211  and  _213
REMARK   86  A    between atoms: _213  and  _214
REMARK   87  A    between atoms: _217  and  _219
REMARK   88  A    between atoms: _219  and  _220
REMARK   89  A    between atoms: _219  and  _222
REMARK   90  A    between atoms: _225  and  _227
REMARK   91  A    between atoms: _227  and  _228
REMARK   92  A    between atoms: _227  and  _230
REMARK   93  A    between atoms: _233  and  _235
REMARK   94  A    between atoms: _235  and  _236
REMARK   95  A    between atoms: _235  and  _238
REMARK   96  A    between atoms: _238  and  _239
REMARK   97  A    between atoms: _244  and  _246
REMARK   98  A    between atoms: _246  and  _247
REMARK   99  A    between atoms: _246  and  _249
REMARK  100  A    between atoms: _249  and  _250
REMARK  101  A    between atoms: _253  and  _255
REMARK  102  A    between atoms: _255  and  _256
REMARK  103  A    between atoms: _255  and  _258
REMARK  104  A    between atoms: _258  and  _259
REMARK  105  A    between atoms: _264  and  _265
REMARK  106  A    between atoms: _267  and  _269
REMARK  107  A    between atoms: _269  and  _270
REMARK  108  A    between atoms: _269  and  _272
REMARK  109  A    between atoms: _272  and  _273
REMARK  110  A    between atoms: _276  and  _278
REMARK  111  A    between atoms: _278  and  _279
REMARK  112  A    between atoms: _278  and  _281
REMARK  113  A    between atoms: _281  and  _282
REMARK  114  A    between atoms: _285  and  _287
REMARK  115  A    between atoms: _287  and  _288
REMARK  116  A    between atoms: _287  and  _290
REMARK  117  A    between atoms: _290  and  _291
REMARK  118  A    between atoms: _291  and  _292
REMARK  119  A    between atoms: _294  and  _296
REMARK  120  A    between atoms: _296  and  _297
REMARK  121  A    between atoms: _296  and  _299
REMARK  122  A    between atoms: _302  and  _304
REMARK  123  A    between atoms: _304  and  _305
REMARK  124  A    between atoms: _304  and  _307
REMARK  125  A    between atoms: _307  and  _308
REMARK  126  A    between atoms: _311  and  _313
REMARK  127  A    between atoms: _313  and  _314
REMARK  128  A    between atoms: _313  and  _316
REMARK  129  A    between atoms: _316  and  _317
REMARK  130  A    between atoms: _320  and  _322
REMARK  131  A    between atoms: _322  and  _323
REMARK  132  A    between atoms: _322  and  _325
REMARK  133  A    between atoms: _325  and  _326
REMARK  134  A    between atoms: _328  and  _330
REMARK  135  A    between atoms: _330  and  _331
REMARK  136  A    between atoms: _330  and  _333
REMARK  137  A    between atoms: _333  and  _334
REMARK  138  A    between atoms: _334  and  _335
REMARK  139  A    between atoms: _338  and  _340
REMARK  140  A    between atoms: _340  and  _341
REMARK  141  A    between atoms: _343  and  _345
REMARK  142  A    between atoms: _345  and  _346
REMARK  143  A    between atoms: _348  and  _350
REMARK  144  A    between atoms: _350  and  _351
REMARK  145  A    between atoms: _350  and  _353
REMARK  146  A    between atoms: _353  and  _354
REMARK  147  A    between atoms: _354  and  _355
REMARK  148  A    between atoms: _357  and  _359
REMARK  149  A    between atoms: _359  and  _360
REMARK  150  A    between atoms: _359  and  _362
REMARK  151  A    between atoms: _362  and  _363
REMARK  152  A    between atoms: _366  and  _368
REMARK  153  A    between atoms: _368  and  _369
REMARK  154  A    between atoms: _368  and  _371
REMARK  155  A    between atoms: _371  and  _372
REMARK  156  A    between atoms: _378  and  _380
REMARK  157  A    between atoms: _380  and  _381
REMARK  158  A    between atoms: _380  and  _383
REMARK  159  A    between atoms: _383  and  _384
REMARK  160  A    between atoms: _387  and  _389
REMARK  161  A    between atoms: _389  and  _390
REMARK  162  A    between atoms: _389  and  _392
REMARK  163  A    between atoms: _392  and  _393
REMARK  164  A    between atoms: _396  and  _398
REMARK  165  A    between atoms: _398  and  _399
REMARK  166  A    between atoms: _398  and  _401
REMARK  167  A    between atoms: _401  and  _402
REMARK  168  A    between atoms: _402  and  _403
REMARK  169  A    between atoms: _403  and  _404
REMARK  170  A    between atoms: _414  and  _415
REMARK  171  A    between atoms: _420  and  _422
REMARK  172  A    between atoms: _422  and  _423
REMARK  173  A    between atoms: _422  and  _425
REMARK  174  A    between atoms: _425  and  _426
REMARK  175  A    between atoms: _432  and  _434
REMARK  176  A    between atoms: _434  and  _435
REMARK  177  A    between atoms: _437  and  _439
REMARK  178  A    between atoms: _439  and  _440
REMARK  179  A    between atoms: _439  and  _442
REMARK  180  A    between atoms: _442  and  _443
REMARK  181  A    between atoms: _446  and  _448
REMARK  182  A    between atoms: _448  and  _449
REMARK  183  A    between atoms: _448  and  _451
REMARK  184  A    between atoms: _451  and  _452
REMARK  185  A    between atoms: _458  and  _460
REMARK  186  A    between atoms: _460  and  _461
REMARK  187  A    between atoms: _460  and  _463
REMARK  188  A    between atoms: _463  and  _464
REMARK  189  A    between atoms: _464  and  _465
REMARK  190  A    between atoms: _467  and  _469
REMARK  191  A    between atoms: _469  and  _470
REMARK  192  A    between atoms: _469  and  _472
REMARK  193  A    between atoms: _472  and  _473
REMARK  194  A    between atoms: _473  and  _474
REMARK  195  A    between atoms: _477  and  _479
REMARK  196  A    between atoms: _479  and  _480
REMARK  197  A    between atoms: _479  and  _482
REMARK  198  A    between atoms: _482  and  _483
REMARK  199  A    between atoms: _483  and  _484
REMARK  200  A    between atoms: _484  and  _485
REMARK  201  A    between atoms: _485  and  _486
REMARK  202  A    between atoms: _490  and  _492
REMARK  203  A    between atoms: _492  and  _493
REMARK  204  A    between atoms: _492  and  _495
REMARK  205  A    between atoms: _495  and  _496
REMARK  206  A    between atoms: _502  and  _504
REMARK  207  A    between atoms: _504  and  _505
REMARK  208  A    between atoms: _504  and  _507
REMARK  209  A    between atoms: _510  and  _512
REMARK  210  A    between atoms: _512  and  _513
REMARK  211  A    between atoms: _512  and  _515
REMARK  212  A    between atoms: _515  and  _516
REMARK  213  A    between atoms: _521  and  _523
REMARK  214  A    between atoms: _523  and  _524
REMARK  215  A    between atoms: _523  and  _526
REMARK  216  A    between atoms: _529  and  _531
REMARK  217  A    between atoms: _531  and  _532
REMARK  218  A    between atoms: _531  and  _534
REMARK  219  A    between atoms: _534  and  _535
REMARK  220  A    between atoms: _538  and  _540
REMARK  221  A    between atoms: _540  and  _541
REMARK  222  A    between atoms: _540  and  _543
REMARK  223  A    between atoms: _543  and  _544
REMARK  224  A    between atoms: _547  and  _549
REMARK  225  A    between atoms: _549  and  _550
REMARK  226  A    between atoms: _549  and  _552
REMARK  227  A    between atoms: _552  and  _553
REMARK  228  A    between atoms: _556  and  _558
REMARK  229  A    between atoms: _558  and  _559
REMARK  230  A    between atoms: _558  and  _561
REMARK  231  A    between atoms: _561  and  _562
REMARK  232  A    between atoms: _562  and  _563
REMARK  233  A    between atoms: _565  and  _567
REMARK  234  A    between atoms: _567  and  _568
REMARK  235  A    between atoms: _567  and  _570
REMARK  236  A    between atoms: _570  and  _571
REMARK  237  A    between atoms: _573  and  _575
REMARK  238  A    between atoms: _575  and  _576
REMARK  239  A    between atoms: _575  and  _578
REMARK  240  A    between atoms: _578  and  _579
REMARK  241  A    between atoms: _582  and  _584
REMARK  242  A    between atoms: _584  and  _585
REMARK  243  A    between atoms: _584  and  _587
REMARK  244  A    between atoms: _587  and  _588
REMARK  245  A    between atoms: _593  and  _595
REMARK  246  A    between atoms: _595  and  _596
REMARK  247  A    between atoms: _595  and  _598
REMARK  248  A    between atoms: _598  and  _599
REMARK  249  A    between atoms: _602  and  _604
REMARK  250  A    between atoms: _604  and  _605
REMARK  251  A    between atoms: _604  and  _607
REMARK  252  A    between atoms: _607  and  _608
REMARK  253  A    between atoms: _611  and  _613
REMARK  254  A    between atoms: _613  and  _614
REMARK  255  A    between atoms: _613  and  _616
REMARK  256  A    between atoms: _616  and  _617
REMARK  257  A    between atoms: _617  and  _618
REMARK  258  A    between atoms: _623  and  _625
REMARK  259  A    between atoms: _625  and  _626
REMARK  260  A    between atoms: _625  and  _628
REMARK  261  A    between atoms: _628  and  _629
REMARK  262  A    between atoms: _632  and  _634
REMARK  263  A    between atoms: _634  and  _635
REMARK  264  A    between atoms: _634  and  _637
REMARK  265  A    between atoms: _637  and  _638
REMARK  266  A    between atoms: _643  and  _644
REMARK                            x       y       z     vdW  Elec       q    Type
REMARK                         _______ _______ _______ _____ _____    ______ ____
ROOT
ATOM      1  C   ASP A   4       5.423 -12.024  15.520  0.00  0.00    +0.241 C 
ATOM      2  O   ASP A   4       5.419 -11.498  16.631  0.00  0.00    -0.273 OA
ATOM      3  N   PHE A   5       6.262 -11.666  14.551  0.00  0.00    -0.297 N 
ATOM      4  H   PHE A   5       6.209 -12.147  13.631  0.00  0.00    +0.150 HD
ENDROOT
BRANCH   1   5
ATOM      5  CA  ASP A   4       4.408 -13.135  15.191  0.00  0.00    +0.160 C 
BRANCH   5   7
ATOM      6  C   GLY A   3       4.042 -14.175  13.031  0.00  0.00    +0.243 C 
ATOM      7  N   ASP A   4       4.801 -14.078  14.126  0.00  0.00    -0.296 N 
ATOM      8  H   ASP A   4       5.657 -14.659  14.227  0.00  0.00    +0.150 HD
ATOM      9  O   GLY A   3       2.989 -13.551  12.906  0.00  0.00    -0.273 OA
BRANCH   6  10
ATOM     10  CA  GLY A   3       4.464 -15.116  11.910  0.00  0.00    +0.176 C 
BRANCH  10  12
ATOM     11  C   PHE A   2       6.887 -14.899  11.830  0.00  0.00    +0.241 C 
ATOM     12  N   GLY A   3       5.806 -15.673  11.900  0.00  0.00    -0.295 N 
ATOM     13  H   GLY A   3       5.925 -16.705  11.949  0.00  0.00    +0.150 HD
ATOM     14  O   PHE A   2       6.845 -13.670  11.803  0.00  0.00    -0.273 OA
BRANCH  11  15
ATOM     15  CA  PHE A   2       8.225 -15.641  11.810  0.00  0.00    +0.153 C 
BRANCH  15  18
ATOM     16  C   PRO A   1       7.963 -16.632  14.006  0.00  0.00    +0.239 C 
ATOM     17  O   PRO A   1       7.781 -15.529  14.516  0.00  0.00    -0.274 OA
ATOM     18  N   PHE A   2       8.189 -16.789  12.707  0.00  0.00    -0.297 N 
ATOM     19  H   PHE A   2       8.342 -17.744  12.325  0.00  0.00    +0.150 HD
BRANCH  16  21
ATOM     20  N   PRO A   1       7.959 -19.173  14.146  0.00  0.00    -0.210 NA
ATOM     21  CA  PRO A   1       7.943 -17.896  14.868  0.00  0.00    +0.149 C 
ATOM     22  CB  PRO A   1       9.173 -18.000  15.760  0.00  0.00    +0.028 C 
ATOM     23  CG  PRO A   1      10.133 -18.680  14.869  0.00  0.00    +0.021 C 
ATOM     24  CD  PRO A   1       9.290 -19.800  14.276  0.00  0.00    +0.089 C 
ENDBRANCH  16  21
ENDBRANCH  15  18
BRANCH  15  25
ATOM     25  CB  PHE A   2       8.550 -16.106  10.393  0.00  0.00    +0.055 C 
BRANCH  25  26
ATOM     26  CG  PHE A   2       9.933 -16.677  10.245  0.00  0.00    -0.020 A 
ATOM     27  CD2 PHE A   2      10.147 -18.052  10.308  0.00  0.00    -0.004 A 
ATOM     28  CE2 PHE A   2      11.432 -18.582  10.202  0.00  0.00    -0.000 A 
ATOM     29  CZ  PHE A   2      12.519 -17.736  10.030  0.00  0.00    -0.000 A 
ATOM     30  CE1 PHE A   2      12.319 -16.362   9.964  0.00  0.00    -0.000 A 
ATOM     31  CD1 PHE A   2      11.028 -15.841  10.072  0.00  0.00    -0.004 A 
ENDBRANCH  25  26
ENDBRANCH  15  25
ENDBRANCH  11  15
ENDBRANCH  10  12
ENDBRANCH   6  10
ENDBRANCH   5   7
BRANCH   5  32
ATOM     32  CB  ASP A   4       4.039 -13.838  16.522  0.00  0.00    +0.143 C 
BRANCH  32  33
ATOM     33  CG  ASP A   4       4.206 -15.344  16.505  0.00  0.00    +0.367 C 
ATOM     34  OD2 ASP A   4       5.344 -15.828  16.638  0.00  0.00    -0.246 OA
ATOM     35  OD1 ASP A   4       3.173 -16.044  16.375  0.00  0.00    -0.246 OA
ENDBRANCH  32  33
ENDBRANCH   5  32
ENDBRANCH   1   5
BRANCH   3  36
ATOM     36  CA  PHE A   5       7.260 -10.608  14.750  0.00  0.00    +0.153 C 
BRANCH  36  37
ATOM     37  C   PHE A   5       6.668  -9.204  14.637  0.00  0.00    +0.241 C 
ATOM     38  O   PHE A   5       6.971  -8.326  15.435  0.00  0.00    -0.273 OA
ATOM     39  N   MET A   6       5.821  -9.019  13.633  0.00  0.00    -0.297 N 
ATOM     40  H   MET A   6       5.583  -9.822  13.017  0.00  0.00    +0.150 HD
BRANCH  39  41
ATOM     41  CA  MET A   6       5.217  -7.724  13.371  0.00  0.00    +0.149 C 
BRANCH  41  42
ATOM     42  C   MET A   6       4.001  -7.363  14.212  0.00  0.00    +0.241 C 
ATOM     43  N   GLU A   7       3.199  -8.365  14.558  0.00  0.00    -0.298 N 
ATOM     44  H   GLU A   7       3.446  -9.333  14.268  0.00  0.00    +0.150 HD
ATOM     45  O   MET A   6       3.811  -6.203  14.546  0.00  0.00    -0.273 OA
BRANCH  43  46
ATOM     46  CA  GLU A   7       1.980  -8.145  15.334  0.00  0.00    +0.137 C 
BRANCH  46  47
ATOM     47  C   GLU A   7       2.169  -7.228  16.541  0.00  0.00    +0.227 C 
ATOM     48  O   GLU A   7       1.345  -6.355  16.792  0.00  0.00    -0.286 OA
ENDBRANCH  46  47
BRANCH  46  49
ATOM     49  CB  GLU A   7       1.386  -9.492  15.765  0.00  0.00    +0.039 C 
BRANCH  49  50
ATOM     50  CG  GLU A   7      -0.115  -9.479  16.043  0.00  0.00    +0.116 C 
BRANCH  50  51
ATOM     51  CD  GLU A   7      -0.904  -8.652  15.044  0.00  0.00    +0.365 C 
ATOM     52  OE2 GLU A   7      -1.847  -7.949  15.468  0.00  0.00    -0.246 OA
ATOM     53  OE1 GLU A   7      -0.590  -8.707  13.836  0.00  0.00    -0.246 OA
ENDBRANCH  50  51
ENDBRANCH  49  50
ENDBRANCH  46  49
ENDBRANCH  43  46
ENDBRANCH  41  42
BRANCH  41  54
ATOM     54  CB  MET A   6       4.834  -7.641  11.887  0.00  0.00    +0.041 C 
BRANCH  54  55
ATOM     55  CG  MET A   6       6.017  -7.789  10.939  0.00  0.00    +0.060 C 
BRANCH  55  56
ATOM     56  SD  MET A   6       7.303  -6.552  11.261  0.00  0.00    -0.139 S 
ATOM     57  CE  MET A   6       6.374  -5.067  11.085  0.00  0.00    +0.069 C 
ENDBRANCH  55  56
ENDBRANCH  54  55
ENDBRANCH  41  54
ENDBRANCH  39  41
ENDBRANCH  36  37
BRANCH  36  58
ATOM     58  CB  PHE A   5       8.367 -10.731  13.697  0.00  0.00    +0.055 C 
BRANCH  58  59
ATOM     59  CG  PHE A   5       9.584 -11.464  14.173  0.00  0.00    -0.020 A 
ATOM     60  CD2 PHE A   5      10.681 -10.769  14.675  0.00  0.00    -0.004 A 
ATOM     61  CE2 PHE A   5      11.831 -11.440  15.084  0.00  0.00    -0.000 A 
ATOM     62  CZ  PHE A   5      11.890 -12.822  14.996  0.00  0.00    -0.000 A 
ATOM     63  CE1 PHE A   5      10.798 -13.531  14.505  0.00  0.00    -0.000 A 
ATOM     64  CD1 PHE A   5       9.651 -12.850  14.096  0.00  0.00    -0.004 A 
ENDBRANCH  58  59
ENDBRANCH  36  58
ENDBRANCH   3  36
TORSDOF 25
REMARK  Name = ../refined-set-2016/1fm9/1fm9_pocket.pdb
REMARK  266 active torsions:
REMARK  status: ('A' for Active; 'I' for Inactive)
REMARK    1  A    between atoms: _1  and  _3
REMARK    2  A    between atoms: _3  and  _4
REMARK    3  A    between atoms: _3  and  _6
REMARK    4  A    between atoms: _6  and  _7
REMARK    5  A    between atoms: _10  and  _12
REMARK    6  A    between atoms: _12  and  _13
REMARK    7  A    between atoms: _12  and  _15
REMARK    8  A    between atoms: _15  and  _16
REMARK    9  A    between atoms: _19  and  _21
REMARK   10  A    between atoms: _21  and  _22
REMARK   11  A    between atoms: _24  and  _26
REMARK   12  A    between atoms: _26  and  _27
REMARK   13  A    between atoms: _26  and  _29
REMARK   14  A    between atoms: _29  and  _30
REMARK   15  A    between atoms: _30  and  _31
REMARK   16  A    between atoms: _34  and  _36
REMARK   17  A    between atoms: _36  and  _37
REMARK   18  A    between atoms: _36  and  _39
REMARK   19  A    between atoms: _39  and  _40
REMARK   20  A    between atoms: _44  and  _45
REMARK   21  A    between atoms: _50  and  _52
REMARK   22  A    between atoms: _52  and  _53
REMARK   23  A    between atoms: _52  and  _55
REMARK   24  A    between atoms: _55  and  _56
REMARK   25  A    between atoms: _59  and  _61
REMARK   26  A    between atoms: _61  and  _62
REMARK   27  A    between atoms: _61  and  _64
REMARK   28  A    between atoms: _67  and  _69
REMARK   29  A    between atoms: _69  and  _70
REMARK   30  A    between atoms: _73  and  _75
REMARK   31  A    between atoms: _75  and  _76
REMARK   32  A    between atoms: _75  and  _78
REMARK   33  A    between atoms: _78  and  _79
REMARK   34  A    between atoms: _82  and  _84
REMARK   35  A    between atoms: _84  and  _85
REMARK   36  A    between atoms: _84  and  _87
REMARK   37  A    between atoms: _87  and  _88
REMARK   38  A    between atoms: _88  and  _89
REMARK   39  A    between atoms: _89  and  _90
REMARK   40  A    between atoms: _99  and  _101
REMARK   41  A    between atoms: _101  and  _102
REMARK   42  A    between atoms: _101  and  _104
REMARK   43  A    between atoms: _104  and  _105
REMARK   44  A    between atoms: _108  and  _110
REMARK   45  A    between atoms: _110  and  _111
REMARK   46  A    between atoms: _110  and  _113
REMARK   47  A    between atoms: _113  and  _114
REMARK   48  A    between atoms: _120  and  _122
REMARK   49  A    between atoms: _122  and  _123
REMARK   50  A    between atoms: _122  and  _125
REMARK   51  A    between atoms: _125  and  _126
REMARK   52  A    between atoms: _126  and  _127
REMARK   53  A    between atoms: _132  and  _134
REMARK   54  A    between atoms: _134  and  _135
REMARK   55  A    between atoms: _137  and  _139
REMARK   56  A    between atoms: _139  and  _140
REMARK   57  A    between atoms: _139  and  _142
REMARK   58  A    between atoms: _144  and  _146
REMARK   59  A    between atoms: _146  and  _147
REMARK   60  A    between atoms: _146  and  _149
REMARK   61  A    between atoms: _149  and  _150
REMARK   62  A    between atoms: _150  and  _151
REMARK   63  A    between atoms: _156  and  _158
REMARK   64  A    between atoms: _158  and  _159
REMARK   65  A    between atoms: _158  and  _161
REMARK   66  A    between atoms: _161  and  _162
REMARK   67  A    between atoms: _168  and  _170
REMARK   68  A    between atoms: _170  and  _171
REMARK   69  A    between atoms: _170  and  _173
REMARK   70  A    between atoms: _173  and  _174
REMARK   71  A    between atoms: _174  and  _175
REMARK   72  A    between atoms: _175  and  _176
REMARK   73  A    between atoms: _185  and  _187
REMARK   74  A    between atoms: _187  and  _188
REMARK   75  A    between atoms: _187  and  _190
REMARK   76  A    between atoms: _190  and  _191
REMARK   77  A    between atoms: _193  and  _195
REMARK   78  A    between atoms: _195  and  _196
REMARK   79  A    between atoms: _195  and  _198
REMARK   80  A    between atoms: _201  and  _203
REMARK   81  A    between atoms: _203  and  _204
REMARK   82  A    between atoms: _203  and  _206
REMARK   83  A    between atoms: _206  and  _207
REMARK   84  A    between atoms: _207  and  _208
REMARK   85  A    between atoms: _211  and  _213
REMARK   86  A    between atoms: _213  and  _214
REMARK   87  A    between atoms: _217  and  _219
REMARK   88  A    between atoms: _219  and  _220
REMARK   89  A    between atoms: _219  and  _222
REMARK   90  A    between atoms: _225  and  _227
REMARK   91  A    between atoms: _227  and  _228
REMARK   92  A    between atoms: _227  and  _230
REMARK   93  A    between atoms: _233  and  _235
REMARK   94  A    between atoms: _235  and  _236
REMARK   95  A    between atoms: _235  and  _238
REMARK   96  A    between atoms: _238  and  _239
REMARK   97  A    between atoms: _244  and  _246
REMARK   98  A    between atoms: _246  and  _247
REMARK   99  A    between atoms: _246  and  _249
REMARK  100  A    between atoms: _249  and  _250
REMARK  101  A    between atoms: _253  and  _255
REMARK  102  A    between atoms: _255  and  _256
REMARK  103  A    between atoms: _255  and  _258
REMARK  104  A    between atoms: _258  and  _259
REMARK  105  A    between atoms: _264  and  _265
REMARK  106  A    between atoms: _267  and  _269
REMARK  107  A    between atoms: _269  and  _270
REMARK  108  A    between atoms: _269  and  _272
REMARK  109  A    between atoms: _272  and  _273
REMARK  110  A    between atoms: _276  and  _278
REMARK  111  A    between atoms: _278  and  _279
REMARK  112  A    between atoms: _278  and  _281
REMARK  113  A    between atoms: _281  and  _282
REMARK  114  A    between atoms: _285  and  _287
REMARK  115  A    between atoms: _287  and  _288
REMARK  116  A    between atoms: _287  and  _290
REMARK  117  A    between atoms: _290  and  _291
REMARK  118  A    between atoms: _291  and  _292
REMARK  119  A    between atoms: _294  and  _296
REMARK  120  A    between atoms: _296  and  _297
REMARK  121  A    between atoms: _296  and  _299
REMARK  122  A    between atoms: _302  and  _304
REMARK  123  A    between atoms: _304  and  _305
REMARK  124  A    between atoms: _304  and  _307
REMARK  125  A    between atoms: _307  and  _308
REMARK  126  A    between atoms: _311  and  _313
REMARK  127  A    between atoms: _313  and  _314
REMARK  128  A    between atoms: _313  and  _316
REMARK  129  A    between atoms: _316  and  _317
REMARK  130  A    between atoms: _320  and  _322
REMARK  131  A    between atoms: _322  and  _323
REMARK  132  A    between atoms: _322  and  _325
REMARK  133  A    between atoms: _325  and  _326
REMARK  134  A    between atoms: _328  and  _330
REMARK  135  A    between atoms: _330  and  _331
REMARK  136  A    between atoms: _330  and  _333
REMARK  137  A    between atoms: _333  and  _334
REMARK  138  A    between atoms: _334  and  _335
REMARK  139  A    between atoms: _338  and  _340
REMARK  140  A    between atoms: _340  and  _341
REMARK  141  A    between atoms: _343  and  _345
REMARK  142  A    between atoms: _345  and  _346
REMARK  143  A    between atoms: _348  and  _350
REMARK  144  A    between atoms: _350  and  _351
REMARK  145  A    between atoms: _350  and  _353
REMARK  146  A    between atoms: _353  and  _354
REMARK  147  A    between atoms: _354  and  _355
REMARK  148  A    between atoms: _357  and  _359
REMARK  149  A    between atoms: _359  and  _360
REMARK  150  A    between atoms: _359  and  _362
REMARK  151  A    between atoms: _362  and  _363
REMARK  152  A    between atoms: _366  and  _368
REMARK  153  A    between atoms: _368  and  _369
REMARK  154  A    between atoms: _368  and  _371
REMARK  155  A    between atoms: _371  and  _372
REMARK  156  A    between atoms: _378  and  _380
REMARK  157  A    between atoms: _380  and  _381
REMARK  158  A    between atoms: _380  and  _383
REMARK  159  A    between atoms: _383  and  _384
REMARK  160  A    between atoms: _387  and  _389
REMARK  161  A    between atoms: _389  and  _390
REMARK  162  A    between atoms: _389  and  _392
REMARK  163  A    between atoms: _392  and  _393
REMARK  164  A    between atoms: _396  and  _398
REMARK  165  A    between atoms: _398  and  _399
REMARK  166  A    between atoms: _398  and  _401
REMARK  167  A    between atoms: _401  and  _402
REMARK  168  A    between atoms: _402  and  _403
REMARK  169  A    between atoms: _403  and  _404
REMARK  170  A    between atoms: _414  and  _415
REMARK  171  A    between atoms: _420  and  _422
REMARK  172  A    between atoms: _422  and  _423
REMARK  173  A    between atoms: _422  and  _425
REMARK  174  A    between atoms: _425  and  _426
REMARK  175  A    between atoms: _432  and  _434
REMARK  176  A    between atoms: _434  and  _435
REMARK  177  A    between atoms: _437  and  _439
REMARK  178  A    between atoms: _439  and  _440
REMARK  179  A    between atoms: _439  and  _442
REMARK  180  A    between atoms: _442  and  _443
REMARK  181  A    between atoms: _446  and  _448
REMARK  182  A    between atoms: _448  and  _449
REMARK  183  A    between atoms: _448  and  _451
REMARK  184  A    between atoms: _451  and  _452
REMARK  185  A    between atoms: _458  and  _460
REMARK  186  A    between atoms: _460  and  _461
REMARK  187  A    between atoms: _460  and  _463
REMARK  188  A    between atoms: _463  and  _464
REMARK  189  A    between atoms: _464  and  _465
REMARK  190  A    between atoms: _467  and  _469
REMARK  191  A    between atoms: _469  and  _470
REMARK  192  A    between atoms: _469  and  _472
REMARK  193  A    between atoms: _472  and  _473
REMARK  194  A    between atoms: _473  and  _474
REMARK  195  A    between atoms: _477  and  _479
REMARK  196  A    between atoms: _479  and  _480
REMARK  197  A    between atoms: _479  and  _482
REMARK  198  A    between atoms: _482  and  _483
REMARK  199  A    between atoms: _483  and  _484
REMARK  200  A    between atoms: _484  and  _485
REMARK  201  A    between atoms: _485  and  _486
REMARK  202  A    between atoms: _490  and  _492
REMARK  203  A    between atoms: _492  and  _493
REMARK  204  A    between atoms: _492  and  _495
REMARK  205  A    between atoms: _495  and  _496
REMARK  206  A    between atoms: _502  and  _504
REMARK  207  A    between atoms: _504  and  _505
REMARK  208  A    between atoms: _504  and  _507
REMARK  209  A    between atoms: _510  and  _512
REMARK  210  A    between atoms: _512  and  _513
REMARK  211  A    between atoms: _512  and  _515
REMARK  212  A    between atoms: _515  and  _516
REMARK  213  A    between atoms: _521  and  _523
REMARK  214  A    between atoms: _523  and  _524
REMARK  215  A    between atoms: _523  and  _526
REMARK  216  A    between atoms: _529  and  _531
REMARK  217  A    between atoms: _531  and  _532
REMARK  218  A    between atoms: _531  and  _534
REMARK  219  A    between atoms: _534  and  _535
REMARK  220  A    between atoms: _538  and  _540
REMARK  221  A    between atoms: _540  and  _541
REMARK  222  A    between atoms: _540  and  _543
REMARK  223  A    between atoms: _543  and  _544
REMARK  224  A    between atoms: _547  and  _549
REMARK  225  A    between atoms: _549  and  _550
REMARK  226  A    between atoms: _549  and  _552
REMARK  227  A    between atoms: _552  and  _553
REMARK  228  A    between atoms: _556  and  _558
REMARK  229  A    between atoms: _558  and  _559
REMARK  230  A    between atoms: _558  and  _561
REMARK  231  A    between atoms: _561  and  _562
REMARK  232  A    between atoms: _562  and  _563
REMARK  233  A    between atoms: _565  and  _567
REMARK  234  A    between atoms: _567  and  _568
REMARK  235  A    between atoms: _567  and  _570
REMARK  236  A    between atoms: _570  and  _571
REMARK  237  A    between atoms: _573  and  _575
REMARK  238  A    between atoms: _575  and  _576
REMARK  239  A    between atoms: _575  and  _578
REMARK  240  A    between atoms: _578  and  _579
REMARK  241  A    between atoms: _582  and  _584
REMARK  242  A    between atoms: _584  and  _585
REMARK  243  A    between atoms: _584  and  _587
REMARK  244  A    between atoms: _587  and  _588
REMARK  245  A    between atoms: _593  and  _595
REMARK  246  A    between atoms: _595  and  _596
REMARK  247  A    between atoms: _595  and  _598
REMARK  248  A    between atoms: _598  and  _599
REMARK  249  A    between atoms: _602  and  _604
REMARK  250  A    between atoms: _604  and  _605
REMARK  251  A    between atoms: _604  and  _607
REMARK  252  A    between atoms: _607  and  _608
REMARK  253  A    between atoms: _611  and  _613
REMARK  254  A    between atoms: _613  and  _614
REMARK  255  A    between atoms: _613  and  _616
REMARK  256  A    between atoms: _616  and  _617
REMARK  257  A    between atoms: _617  and  _618
REMARK  258  A    between atoms: _623  and  _625
REMARK  259  A    between atoms: _625  and  _626
REMARK  260  A    between atoms: _625  and  _628
REMARK  261  A    between atoms: _628  and  _629
REMARK  262  A    between atoms: _632  and  _634
REMARK  263  A    between atoms: _634  and  _635
REMARK  264  A    between atoms: _634  and  _637
REMARK  265  A    between atoms: _637  and  _638
REMARK  266  A    between atoms: _643  and  _644
REMARK                            x       y       z     vdW  Elec       q    Type
REMARK                         _______ _______ _______ _____ _____    ______ ____
ROOT
ATOM      1  C   LYS A   1       3.447  -2.935  15.837  0.00  0.00    +0.238 C 
ATOM      2  O   LYS A   1       3.356  -1.716  15.951  0.00  0.00    -0.274 OA
ATOM      3  N   PHE A   2       2.476  -3.680  15.299  0.00  0.00    -0.298 N 
ATOM      4  H   PHE A   2       2.602  -4.708  15.202  0.00  0.00    +0.150 HD
ENDROOT
BRANCH   1   5
ATOM      5  CA  LYS A   1       4.704  -3.660  16.348  0.00  0.00    +0.145 C 
BRANCH   5   6
ATOM      6  N   LYS A   1       4.405  -4.972  16.893  0.00  0.00    -0.238 NA
ATOM      7  H   LYS A   1       4.732  -5.820  16.387  0.00  0.00    +0.142 HD
ENDBRANCH   5   6
BRANCH   5   8
ATOM      8  CB  LYS A   1       5.781  -3.776  15.242  0.00  0.00    +0.026 C 
BRANCH   8   9
ATOM      9  CG  LYS A   1       7.201  -4.052  15.775  0.00  0.00    -0.000 C 
BRANCH   9  10
ATOM     10  CD  LYS A   1       7.547  -5.542  15.828  0.00  0.00    -0.024 C 
BRANCH  10  11
ATOM     11  CE  LYS A   1       8.867  -5.797  16.579  0.00  0.00    -0.086 C 
BRANCH  11  12
ATOM     12  NZ  LYS A   1       8.974  -7.201  17.056  0.00  0.00    +0.380 N 
ATOM     13  HZ1 LYS A   1       8.186  -7.407  17.703  0.00  0.00    -0.089 HD
ATOM     14  HZ2 LYS A   1       9.877  -7.328  17.556  0.00  0.00    -0.089 HD
ATOM     15  HZ3 LYS A   1       8.933  -7.847  16.242  0.00  0.00    -0.089 HD
ENDBRANCH  11  12
ENDBRANCH  10  11
ENDBRANCH   9  10
ENDBRANCH   8   9
ENDBRANCH   5   8
ENDBRANCH   1   5
BRANCH   3  16
ATOM     16  CA  PHE A   2       1.231  -3.046  14.845  0.00  0.00    +0.141 C 
BRANCH  16  17
ATOM     17  C   PHE A   2       0.428  -2.606  16.073  0.00  0.00    +0.227 C 
ATOM     18  O   PHE A   2      -0.109  -1.506  16.101  0.00  0.00    -0.286 OA
ENDBRANCH  16  17
BRANCH  16  19
ATOM     19  CB  PHE A   2       0.378  -3.999  13.989  0.00  0.00    +0.054 C 
BRANCH  19  20
ATOM     20  CG  PHE A   2       0.796  -4.098  12.539  0.00  0.00    -0.020 A 
ATOM     21  CD2 PHE A   2       1.375  -5.284  12.071  0.00  0.00    -0.004 A 
ATOM     22  CE2 PHE A   2       1.744  -5.412  10.727  0.00  0.00    -0.000 A 
ATOM     23  CZ  PHE A   2       1.543  -4.362   9.838  0.00  0.00    -0.000 A 
ATOM     24  CE1 PHE A   2       0.968  -3.172  10.286  0.00  0.00    -0.000 A 
ATOM     25  CD1 PHE A   2       0.599  -3.050  11.640  0.00  0.00    -0.004 A 
ENDBRANCH  19  20
ENDBRANCH  16  19
ENDBRANCH   3  16
TORSDOF 11
REMARK  Name = ../refined-set-2016/1fm9/1fm9_pocket.pdb
REMARK  266 active torsions:
REMARK  status: ('A' for Active; 'I' for Inactive)
REMARK    1  A    between atoms: _1  and  _3
REMARK    2  A    between atoms: _3  and  _4
REMARK    3  A    between atoms: _3  and  _6
REMARK    4  A    between atoms: _6  and  _7
REMARK    5  A    between atoms: _10  and  _12
REMARK    6  A    between atoms: _12  and  _13
REMARK    7  A    between atoms: _12  and  _15
REMARK    8  A    between atoms: _15  and  _16
REMARK    9  A    between atoms: _19  and  _21
REMARK   10  A    between atoms: _21  and  _22
REMARK   11  A    between atoms: _24  and  _26
REMARK   12  A    between atoms: _26  and  _27
REMARK   13  A    between atoms: _26  and  _29
REMARK   14  A    between atoms: _29  and  _30
REMARK   15  A    between atoms: _30  and  _31
REMARK   16  A    between atoms: _34  and  _36
REMARK   17  A    between atoms: _36  and  _37
REMARK   18  A    between atoms: _36  and  _39
REMARK   19  A    between atoms: _39  and  _40
REMARK   20  A    between atoms: _44  and  _45
REMARK   21  A    between atoms: _50  and  _52
REMARK   22  A    between atoms: _52  and  _53
REMARK   23  A    between atoms: _52  and  _55
REMARK   24  A    between atoms: _55  and  _56
REMARK   25  A    between atoms: _59  and  _61
REMARK   26  A    between atoms: _61  and  _62
REMARK   27  A    between atoms: _61  and  _64
REMARK   28  A    between atoms: _67  and  _69
REMARK   29  A    between atoms: _69  and  _70
REMARK   30  A    between atoms: _73  and  _75
REMARK   31  A    between atoms: _75  and  _76
REMARK   32  A    between atoms: _75  and  _78
REMARK   33  A    between atoms: _78  and  _79
REMARK   34  A    between atoms: _82  and  _84
REMARK   35  A    between atoms: _84  and  _85
REMARK   36  A    between atoms: _84  and  _87
REMARK   37  A    between atoms: _87  and  _88
REMARK   38  A    between atoms: _88  and  _89
REMARK   39  A    between atoms: _89  and  _90
REMARK   40  A    between atoms: _99  and  _101
REMARK   41  A    between atoms: _101  and  _102
REMARK   42  A    between atoms: _101  and  _104
REMARK   43  A    between atoms: _104  and  _105
REMARK   44  A    between atoms: _108  and  _110
REMARK   45  A    between atoms: _110  and  _111
REMARK   46  A    between atoms: _110  and  _113
REMARK   47  A    between atoms: _113  and  _114
REMARK   48  A    between atoms: _120  and  _122
REMARK   49  A    between atoms: _122  and  _123
REMARK   50  A    between atoms: _122  and  _125
REMARK   51  A    between atoms: _125  and  _126
REMARK   52  A    between atoms: _126  and  _127
REMARK   53  A    between atoms: _132  and  _134
REMARK   54  A    between atoms: _134  and  _135
REMARK   55  A    between atoms: _137  and  _139
REMARK   56  A    between atoms: _139  and  _140
REMARK   57  A    between atoms: _139  and  _142
REMARK   58  A    between atoms: _144  and  _146
REMARK   59  A    between atoms: _146  and  _147
REMARK   60  A    between atoms: _146  and  _149
REMARK   61  A    between atoms: _149  and  _150
REMARK   62  A    between atoms: _150  and  _151
REMARK   63  A    between atoms: _156  and  _158
REMARK   64  A    between atoms: _158  and  _159
REMARK   65  A    between atoms: _158  and  _161
REMARK   66  A    between atoms: _161  and  _162
REMARK   67  A    between atoms: _168  and  _170
REMARK   68  A    between atoms: _170  and  _171
REMARK   69  A    between atoms: _170  and  _173
REMARK   70  A    between atoms: _173  and  _174
REMARK   71  A    between atoms: _174  and  _175
REMARK   72  A    between atoms: _175  and  _176
REMARK   73  A    between atoms: _185  and  _187
REMARK   74  A    between atoms: _187  and  _188
REMARK   75  A    between atoms: _187  and  _190
REMARK   76  A    between atoms: _190  and  _191
REMARK   77  A    between atoms: _193  and  _195
REMARK   78  A    between atoms: _195  and  _196
REMARK   79  A    between atoms: _195  and  _198
REMARK   80  A    between atoms: _201  and  _203
REMARK   81  A    between atoms: _203  and  _204
REMARK   82  A    between atoms: _203  and  _206
REMARK   83  A    between atoms: _206  and  _207
REMARK   84  A    between atoms: _207  and  _208
REMARK   85  A    between atoms: _211  and  _213
REMARK   86  A    between atoms: _213  and  _214
REMARK   87  A    between atoms: _217  and  _219
REMARK   88  A    between atoms: _219  and  _220
REMARK   89  A    between atoms: _219  and  _222
REMARK   90  A    between atoms: _225  and  _227
REMARK   91  A    between atoms: _227  and  _228
REMARK   92  A    between atoms: _227  and  _230
REMARK   93  A    between atoms: _233  and  _235
REMARK   94  A    between atoms: _235  and  _236
REMARK   95  A    between atoms: _235  and  _238
REMARK   96  A    between atoms: _238  and  _239
REMARK   97  A    between atoms: _244  and  _246
REMARK   98  A    between atoms: _246  and  _247
REMARK   99  A    between atoms: _246  and  _249
REMARK  100  A    between atoms: _249  and  _250
REMARK  101  A    between atoms: _253  and  _255
REMARK  102  A    between atoms: _255  and  _256
REMARK  103  A    between atoms: _255  and  _258
REMARK  104  A    between atoms: _258  and  _259
REMARK  105  A    between atoms: _264  and  _265
REMARK  106  A    between atoms: _267  and  _269
REMARK  107  A    between atoms: _269  and  _270
REMARK  108  A    between atoms: _269  and  _272
REMARK  109  A    between atoms: _272  and  _273
REMARK  110  A    between atoms: _276  and  _278
REMARK  111  A    between atoms: _278  and  _279
REMARK  112  A    between atoms: _278  and  _281
REMARK  113  A    between atoms: _281  and  _282
REMARK  114  A    between atoms: _285  and  _287
REMARK  115  A    between atoms: _287  and  _288
REMARK  116  A    between atoms: _287  and  _290
REMARK  117  A    between atoms: _290  and  _291
REMARK  118  A    between atoms: _291  and  _292
REMARK  119  A    between atoms: _294  and  _296
REMARK  120  A    between atoms: _296  and  _297
REMARK  121  A    between atoms: _296  and  _299
REMARK  122  A    between atoms: _302  and  _304
REMARK  123  A    between atoms: _304  and  _305
REMARK  124  A    between atoms: _304  and  _307
REMARK  125  A    between atoms: _307  and  _308
REMARK  126  A    between atoms: _311  and  _313
REMARK  127  A    between atoms: _313  and  _314
REMARK  128  A    between atoms: _313  and  _316
REMARK  129  A    between atoms: _316  and  _317
REMARK  130  A    between atoms: _320  and  _322
REMARK  131  A    between atoms: _322  and  _323
REMARK  132  A    between atoms: _322  and  _325
REMARK  133  A    between atoms: _325  and  _326
REMARK  134  A    between atoms: _328  and  _330
REMARK  135  A    between atoms: _330  and  _331
REMARK  136  A    between atoms: _330  and  _333
REMARK  137  A    between atoms: _333  and  _334
REMARK  138  A    between atoms: _334  and  _335
REMARK  139  A    between atoms: _338  and  _340
REMARK  140  A    between atoms: _340  and  _341
REMARK  141  A    between atoms: _343  and  _345
REMARK  142  A    between atoms: _345  and  _346
REMARK  143  A    between atoms: _348  and  _350
REMARK  144  A    between atoms: _350  and  _351
REMARK  145  A    between atoms: _350  and  _353
REMARK  146  A    between atoms: _353  and  _354
REMARK  147  A    between atoms: _354  and  _355
REMARK  148  A    between atoms: _357  and  _359
REMARK  149  A    between atoms: _359  and  _360
REMARK  150  A    between atoms: _359  and  _362
REMARK  151  A    between atoms: _362  and  _363
REMARK  152  A    between atoms: _366  and  _368
REMARK  153  A    between atoms: _368  and  _369
REMARK  154  A    between atoms: _368  and  _371
REMARK  155  A    between atoms: _371  and  _372
REMARK  156  A    between atoms: _378  and  _380
REMARK  157  A    between atoms: _380  and  _381
REMARK  158  A    between atoms: _380  and  _383
REMARK  159  A    between atoms: _383  and  _384
REMARK  160  A    between atoms: _387  and  _389
REMARK  161  A    between atoms: _389  and  _390
REMARK  162  A    between atoms: _389  and  _392
REMARK  163  A    between atoms: _392  and  _393
REMARK  164  A    between atoms: _396  and  _398
REMARK  165  A    between atoms: _398  and  _399
REMARK  166  A    between atoms: _398  and  _401
REMARK  167  A    between atoms: _401  and  _402
REMARK  168  A    between atoms: _402  and  _403
REMARK  169  A    between atoms: _403  and  _404
REMARK  170  A    between atoms: _414  and  _415
REMARK  171  A    between atoms: _420  and  _422
REMARK  172  A    between atoms: _422  and  _423
REMARK  173  A    between atoms: _422  and  _425
REMARK  174  A    between atoms: _425  and  _426
REMARK  175  A    between atoms: _432  and  _434
REMARK  176  A    between atoms: _434  and  _435
REMARK  177  A    between atoms: _437  and  _439
REMARK  178  A    between atoms: _439  and  _440
REMARK  179  A    between atoms: _439  and  _442
REMARK  180  A    between atoms: _442  and  _443
REMARK  181  A    between atoms: _446  and  _448
REMARK  182  A    between atoms: _448  and  _449
REMARK  183  A    between atoms: _448  and  _451
REMARK  184  A    between atoms: _451  and  _452
REMARK  185  A    between atoms: _458  and  _460
REMARK  186  A    between atoms: _460  and  _461
REMARK  187  A    between atoms: _460  and  _463
REMARK  188  A    between atoms: _463  and  _464
REMARK  189  A    between atoms: _464  and  _465
REMARK  190  A    between atoms: _467  and  _469
REMARK  191  A    between atoms: _469  and  _470
REMARK  192  A    between atoms: _469  and  _472
REMARK  193  A    between atoms: _472  and  _473
REMARK  194  A    between atoms: _473  and  _474
REMARK  195  A    between atoms: _477  and  _479
REMARK  196  A    between atoms: _479  and  _480
REMARK  197  A    between atoms: _479  and  _482
REMARK  198  A    between atoms: _482  and  _483
REMARK  199  A    between atoms: _483  and  _484
REMARK  200  A    between atoms: _484  and  _485
REMARK  201  A    between atoms: _485  and  _486
REMARK  202  A    between atoms: _490  and  _492
REMARK  203  A    between atoms: _492  and  _493
REMARK  204  A    between atoms: _492  and  _495
REMARK  205  A    between atoms: _495  and  _496
REMARK  206  A    between atoms: _502  and  _504
REMARK  207  A    between atoms: _504  and  _505
REMARK  208  A    between atoms: _504  and  _507
REMARK  209  A    between atoms: _510  and  _512
REMARK  210  A    between atoms: _512  and  _513
REMARK  211  A    between atoms: _512  and  _515
REMARK  212  A    between atoms: _515  and  _516
REMARK  213  A    between atoms: _521  and  _523
REMARK  214  A    between atoms: _523  and  _524
REMARK  215  A    between atoms: _523  and  _526
REMARK  216  A    between atoms: _529  and  _531
REMARK  217  A    between atoms: _531  and  _532
REMARK  218  A    between atoms: _531  and  _534
REMARK  219  A    between atoms: _534  and  _535
REMARK  220  A    between atoms: _538  and  _540
REMARK  221  A    between atoms: _540  and  _541
REMARK  222  A    between atoms: _540  and  _543
REMARK  223  A    between atoms: _543  and  _544
REMARK  224  A    between atoms: _547  and  _549
REMARK  225  A    between atoms: _549  and  _550
REMARK  226  A    between atoms: _549  and  _552
REMARK  227  A    between atoms: _552  and  _553
REMARK  228  A    between atoms: _556  and  _558
REMARK  229  A    between atoms: _558  and  _559
REMARK  230  A    between atoms: _558  and  _561
REMARK  231  A    between atoms: _561  and  _562
REMARK  232  A    between atoms: _562  and  _563
REMARK  233  A    between atoms: _565  and  _567
REMARK  234  A    between atoms: _567  and  _568
REMARK  235  A    between atoms: _567  and  _570
REMARK  236  A    between atoms: _570  and  _571
REMARK  237  A    between atoms: _573  and  _575
REMARK  238  A    between atoms: _575  and  _576
REMARK  239  A    between atoms: _575  and  _578
REMARK  240  A    between atoms: _578  and  _579
REMARK  241  A    between atoms: _582  and  _584
REMARK  242  A    between atoms: _584  and  _585
REMARK  243  A    between atoms: _584  and  _587
REMARK  244  A    between atoms: _587  and  _588
REMARK  245  A    between atoms: _593  and  _595
REMARK  246  A    between atoms: _595  and  _596
REMARK  247  A    between atoms: _595  and  _598
REMARK  248  A    between atoms: _598  and  _599
REMARK  249  A    between atoms: _602  and  _604
REMARK  250  A    between atoms: _604  and  _605
REMARK  251  A    between atoms: _604  and  _607
REMARK  252  A    between atoms: _607  and  _608
REMARK  253  A    between atoms: _611  and  _613
REMARK  254  A    between atoms: _613  and  _614
REMARK  255  A    between atoms: _613  and  _616
REMARK  256  A    between atoms: _616  and  _617
REMARK  257  A    between atoms: _617  and  _618
REMARK  258  A    between atoms: _623  and  _625
REMARK  259  A    between atoms: _625  and  _626
REMARK  260  A    between atoms: _625  and  _628
REMARK  261  A    between atoms: _628  and  _629
REMARK  262  A    between atoms: _632  and  _634
REMARK  263  A    between atoms: _634  and  _635
REMARK  264  A    between atoms: _634  and  _637
REMARK  265  A    between atoms: _637  and  _638
REMARK  266  A    between atoms: _643  and  _644
REMARK                            x       y       z     vdW  Elec       q    Type
REMARK                         _______ _______ _______ _____ _____    ______ ____
ROOT
ATOM      1  CA  VAL A   1      12.683  -4.241  21.793  0.00  0.00    +0.133 C 
ENDROOT
BRANCH   1   2
ATOM      2  CB  VAL A   1      13.635  -3.110  22.244  0.00  0.00    +0.023 C 
ATOM      3  CG2 VAL A   1      15.071  -3.604  22.297  0.00  0.00    +0.002 C 
ATOM      4  CG1 VAL A   1      13.528  -1.934  21.276  0.00  0.00    +0.002 C 
ENDBRANCH   1   2
BRANCH   1   5
ATOM      5  N   VAL A   1      11.313  -3.919  22.132  0.00  0.00    -0.239 NA
ATOM      6  H   VAL A   1      11.121  -3.106  22.751  0.00  0.00    +0.142 HD
ENDBRANCH   1   5
BRANCH   1   7
ATOM      7  C   VAL A   1      13.117  -5.584  22.401  0.00  0.00    +0.224 C 
ATOM      8  O   VAL A   1      13.590  -6.472  21.679  0.00  0.00    -0.287 OA
ENDBRANCH   1   7
TORSDOF 3
REMARK  Name = ../refined-set-2016/1fm9/1fm9_pocket.pdb
REMARK  266 active torsions:
REMARK  status: ('A' for Active; 'I' for Inactive)
REMARK    1  A    between atoms: _1  and  _3
REMARK    2  A    between atoms: _3  and  _4
REMARK    3  A    between atoms: _3  and  _6
REMARK    4  A    between atoms: _6  and  _7
REMARK    5  A    between atoms: _10  and  _12
REMARK    6  A    between atoms: _12  and  _13
REMARK    7  A    between atoms: _12  and  _15
REMARK    8  A    between atoms: _15  and  _16
REMARK    9  A    between atoms: _19  and  _21
REMARK   10  A    between atoms: _21  and  _22
REMARK   11  A    between atoms: _24  and  _26
REMARK   12  A    between atoms: _26  and  _27
REMARK   13  A    between atoms: _26  and  _29
REMARK   14  A    between atoms: _29  and  _30
REMARK   15  A    between atoms: _30  and  _31
REMARK   16  A    between atoms: _34  and  _36
REMARK   17  A    between atoms: _36  and  _37
REMARK   18  A    between atoms: _36  and  _39
REMARK   19  A    between atoms: _39  and  _40
REMARK   20  A    between atoms: _44  and  _45
REMARK   21  A    between atoms: _50  and  _52
REMARK   22  A    between atoms: _52  and  _53
REMARK   23  A    between atoms: _52  and  _55
REMARK   24  A    between atoms: _55  and  _56
REMARK   25  A    between atoms: _59  and  _61
REMARK   26  A    between atoms: _61  and  _62
REMARK   27  A    between atoms: _61  and  _64
REMARK   28  A    between atoms: _67  and  _69
REMARK   29  A    between atoms: _69  and  _70
REMARK   30  A    between atoms: _73  and  _75
REMARK   31  A    between atoms: _75  and  _76
REMARK   32  A    between atoms: _75  and  _78
REMARK   33  A    between atoms: _78  and  _79
REMARK   34  A    between atoms: _82  and  _84
REMARK   35  A    between atoms: _84  and  _85
REMARK   36  A    between atoms: _84  and  _87
REMARK   37  A    between atoms: _87  and  _88
REMARK   38  A    between atoms: _88  and  _89
REMARK   39  A    between atoms: _89  and  _90
REMARK   40  A    between atoms: _99  and  _101
REMARK   41  A    between atoms: _101  and  _102
REMARK   42  A    between atoms: _101  and  _104
REMARK   43  A    between atoms: _104  and  _105
REMARK   44  A    between atoms: _108  and  _110
REMARK   45  A    between atoms: _110  and  _111
REMARK   46  A    between atoms: _110  and  _113
REMARK   47  A    between atoms: _113  and  _114
REMARK   48  A    between atoms: _120  and  _122
REMARK   49  A    between atoms: _122  and  _123
REMARK   50  A    between atoms: _122  and  _125
REMARK   51  A    between atoms: _125  and  _126
REMARK   52  A    between atoms: _126  and  _127
REMARK   53  A    between atoms: _132  and  _134
REMARK   54  A    between atoms: _134  and  _135
REMARK   55  A    between atoms: _137  and  _139
REMARK   56  A    between atoms: _139  and  _140
REMARK   57  A    between atoms: _139  and  _142
REMARK   58  A    between atoms: _144  and  _146
REMARK   59  A    between atoms: _146  and  _147
REMARK   60  A    between atoms: _146  and  _149
REMARK   61  A    between atoms: _149  and  _150
REMARK   62  A    between atoms: _150  and  _151
REMARK   63  A    between atoms: _156  and  _158
REMARK   64  A    between atoms: _158  and  _159
REMARK   65  A    between atoms: _158  and  _161
REMARK   66  A    between atoms: _161  and  _162
REMARK   67  A    between atoms: _168  and  _170
REMARK   68  A    between atoms: _170  and  _171
REMARK   69  A    between atoms: _170  and  _173
REMARK   70  A    between atoms: _173  and  _174
REMARK   71  A    between atoms: _174  and  _175
REMARK   72  A    between atoms: _175  and  _176
REMARK   73  A    between atoms: _185  and  _187
REMARK   74  A    between atoms: _187  and  _188
REMARK   75  A    between atoms: _187  and  _190
REMARK   76  A    between atoms: _190  and  _191
REMARK   77  A    between atoms: _193  and  _195
REMARK   78  A    between atoms: _195  and  _196
REMARK   79  A    between atoms: _195  and  _198
REMARK   80  A    between atoms: _201  and  _203
REMARK   81  A    between atoms: _203  and  _204
REMARK   82  A    between atoms: _203  and  _206
REMARK   83  A    between atoms: _206  and  _207
REMARK   84  A    between atoms: _207  and  _208
REMARK   85  A    between atoms: _211  and  _213
REMARK   86  A    between atoms: _213  and  _214
REMARK   87  A    between atoms: _217  and  _219
REMARK   88  A    between atoms: _219  and  _220
REMARK   89  A    between atoms: _219  and  _222
REMARK   90  A    between atoms: _225  and  _227
REMARK   91  A    between atoms: _227  and  _228
REMARK   92  A    between atoms: _227  and  _230
REMARK   93  A    between atoms: _233  and  _235
REMARK   94  A    between atoms: _235  and  _236
REMARK   95  A    between atoms: _235  and  _238
REMARK   96  A    between atoms: _238  and  _239
REMARK   97  A    between atoms: _244  and  _246
REMARK   98  A    between atoms: _246  and  _247
REMARK   99  A    between atoms: _246  and  _249
REMARK  100  A    between atoms: _249  and  _250
REMARK  101  A    between atoms: _253  and  _255
REMARK  102  A    between atoms: _255  and  _256
REMARK  103  A    between atoms: _255  and  _258
REMARK  104  A    between atoms: _258  and  _259
REMARK  105  A    between atoms: _264  and  _265
REMARK  106  A    between atoms: _267  and  _269
REMARK  107  A    between atoms: _269  and  _270
REMARK  108  A    between atoms: _269  and  _272
REMARK  109  A    between atoms: _272  and  _273
REMARK  110  A    between atoms: _276  and  _278
REMARK  111  A    between atoms: _278  and  _279
REMARK  112  A    between atoms: _278  and  _281
REMARK  113  A    between atoms: _281  and  _282
REMARK  114  A    between atoms: _285  and  _287
REMARK  115  A    between atoms: _287  and  _288
REMARK  116  A    between atoms: _287  and  _290
REMARK  117  A    between atoms: _290  and  _291
REMARK  118  A    between atoms: _291  and  _292
REMARK  119  A    between atoms: _294  and  _296
REMARK  120  A    between atoms: _296  and  _297
REMARK  121  A    between atoms: _296  and  _299
REMARK  122  A    between atoms: _302  and  _304
REMARK  123  A    between atoms: _304  and  _305
REMARK  124  A    between atoms: _304  and  _307
REMARK  125  A    between atoms: _307  and  _308
REMARK  126  A    between atoms: _311  and  _313
REMARK  127  A    between atoms: _313  and  _314
REMARK  128  A    between atoms: _313  and  _316
REMARK  129  A    between atoms: _316  and  _317
REMARK  130  A    between atoms: _320  and  _322
REMARK  131  A    between atoms: _322  and  _323
REMARK  132  A    between atoms: _322  and  _325
REMARK  133  A    between atoms: _325  and  _326
REMARK  134  A    between atoms: _328  and  _330
REMARK  135  A    between atoms: _330  and  _331
REMARK  136  A    between atoms: _330  and  _333
REMARK  137  A    between atoms: _333  and  _334
REMARK  138  A    between atoms: _334  and  _335
REMARK  139  A    between atoms: _338  and  _340
REMARK  140  A    between atoms: _340  and  _341
REMARK  141  A    between atoms: _343  and  _345
REMARK  142  A    between atoms: _345  and  _346
REMARK  143  A    between atoms: _348  and  _350
REMARK  144  A    between atoms: _350  and  _351
REMARK  145  A    between atoms: _350  and  _353
REMARK  146  A    between atoms: _353  and  _354
REMARK  147  A    between atoms: _354  and  _355
REMARK  148  A    between atoms: _357  and  _359
REMARK  149  A    between atoms: _359  and  _360
REMARK  150  A    between atoms: _359  and  _362
REMARK  151  A    between atoms: _362  and  _363
REMARK  152  A    between atoms: _366  and  _368
REMARK  153  A    between atoms: _368  and  _369
REMARK  154  A    between atoms: _368  and  _371
REMARK  155  A    between atoms: _371  and  _372
REMARK  156  A    between atoms: _378  and  _380
REMARK  157  A    between atoms: _380  and  _381
REMARK  158  A    between atoms: _380  and  _383
REMARK  159  A    between atoms: _383  and  _384
REMARK  160  A    between atoms: _387  and  _389
REMARK  161  A    between atoms: _389  and  _390
REMARK  162  A    between atoms: _389  and  _392
REMARK  163  A    between atoms: _392  and  _393
REMARK  164  A    between atoms: _396  and  _398
REMARK  165  A    between atoms: _398  and  _399
REMARK  166  A    between atoms: _398  and  _401
REMARK  167  A    between atoms: _401  and  _402
REMARK  168  A    between atoms: _402  and  _403
REMARK  169  A    between atoms: _403  and  _404
REMARK  170  A    between atoms: _414  and  _415
REMARK  171  A    between atoms: _420  and  _422
REMARK  172  A    between atoms: _422  and  _423
REMARK  173  A    between atoms: _422  and  _425
REMARK  174  A    between atoms: _425  and  _426
REMARK  175  A    between atoms: _432  and  _434
REMARK  176  A    between atoms: _434  and  _435
REMARK  177  A    between atoms: _437  and  _439
REMARK  178  A    between atoms: _439  and  _440
REMARK  179  A    between atoms: _439  and  _442
REMARK  180  A    between atoms: _442  and  _443
REMARK  181  A    between atoms: _446  and  _448
REMARK  182  A    between atoms: _448  and  _449
REMARK  183  A    between atoms: _448  and  _451
REMARK  184  A    between atoms: _451  and  _452
REMARK  185  A    between atoms: _458  and  _460
REMARK  186  A    between atoms: _460  and  _461
REMARK  187  A    between atoms: _460  and  _463
REMARK  188  A    between atoms: _463  and  _464
REMARK  189  A    between atoms: _464  and  _465
REMARK  190  A    between atoms: _467  and  _469
REMARK  191  A    between atoms: _469  and  _470
REMARK  192  A    between atoms: _469  and  _472
REMARK  193  A    between atoms: _472  and  _473
REMARK  194  A    between atoms: _473  and  _474
REMARK  195  A    between atoms: _477  and  _479
REMARK  196  A    between atoms: _479  and  _480
REMARK  197  A    between atoms: _479  and  _482
REMARK  198  A    between atoms: _482  and  _483
REMARK  199  A    between atoms: _483  and  _484
REMARK  200  A    between atoms: _484  and  _485
REMARK  201  A    between atoms: _485  and  _486
REMARK  202  A    between atoms: _490  and  _492
REMARK  203  A    between atoms: _492  and  _493
REMARK  204  A    between atoms: _492  and  _495
REMARK  205  A    between atoms: _495  and  _496
REMARK  206  A    between atoms: _502  and  _504
REMARK  207  A    between atoms: _504  and  _505
REMARK  208  A    between atoms: _504  and  _507
REMARK  209  A    between atoms: _510  and  _512
REMARK  210  A    between atoms: _512  and  _513
REMARK  211  A    between atoms: _512  and  _515
REMARK  212  A    between atoms: _515  and  _516
REMARK  213  A    between atoms: _521  and  _523
REMARK  214  A    between atoms: _523  and  _524
REMARK  215  A    between atoms: _523  and  _526
REMARK  216  A    between atoms: _529  and  _531
REMARK  217  A    between atoms: _531  and  _532
REMARK  218  A    between atoms: _531  and  _534
REMARK  219  A    between atoms: _534  and  _535
REMARK  220  A    between atoms: _538  and  _540
REMARK  221  A    between atoms: _540  and  _541
REMARK  222  A    between atoms: _540  and  _543
REMARK  223  A    between atoms: _543  and  _544
REMARK  224  A    between atoms: _547  and  _549
REMARK  225  A    between atoms: _549  and  _550
REMARK  226  A    between atoms: _549  and  _552
REMARK  227  A    between atoms: _552  and  _553
REMARK  228  A    between atoms: _556  and  _558
REMARK  229  A    between atoms: _558  and  _559
REMARK  230  A    between atoms: _558  and  _561
REMARK  231  A    between atoms: _561  and  _562
REMARK  232  A    between atoms: _562  and  _563
REMARK  233  A    between atoms: _565  and  _567
REMARK  234  A    between atoms: _567  and  _568
REMARK  235  A    between atoms: _567  and  _570
REMARK  236  A    between atoms: _570  and  _571
REMARK  237  A    between atoms: _573  and  _575
REMARK  238  A    between atoms: _575  and  _576
REMARK  239  A    between atoms: _575  and  _578
REMARK  240  A    between atoms: _578  and  _579
REMARK  241  A    between atoms: _582  and  _584
REMARK  242  A    between atoms: _584  and  _585
REMARK  243  A    between atoms: _584  and  _587
REMARK  244  A    between atoms: _587  and  _588
REMARK  245  A    between atoms: _593  and  _595
REMARK  246  A    between atoms: _595  and  _596
REMARK  247  A    between atoms: _595  and  _598
REMARK  248  A    between atoms: _598  and  _599
REMARK  249  A    between atoms: _602  and  _604
REMARK  250  A    between atoms: _604  and  _605
REMARK  251  A    between atoms: _604  and  _607
REMARK  252  A    between atoms: _607  and  _608
REMARK  253  A    between atoms: _611  and  _613
REMARK  254  A    between atoms: _613  and  _614
REMARK  255  A    between atoms: _613  and  _616
REMARK  256  A    between atoms: _616  and  _617
REMARK  257  A    between atoms: _617  and  _618
REMARK  258  A    between atoms: _623  and  _625
REMARK  259  A    between atoms: _625  and  _626
REMARK  260  A    between atoms: _625  and  _628
REMARK  261  A    between atoms: _628  and  _629
REMARK  262  A    between atoms: _632  and  _634
REMARK  263  A    between atoms: _634  and  _635
REMARK  264  A    between atoms: _634  and  _637
REMARK  265  A    between atoms: _637  and  _638
REMARK  266  A    between atoms: _643  and  _644
REMARK                            x       y       z     vdW  Elec       q    Type
REMARK                         _______ _______ _______ _____ _____    ______ ____
ROOT
ATOM      1  C   HIS A   1      13.170  -9.445  19.546  0.00  0.00    +0.239 C 
ATOM      2  N   VAL A   2      13.998  -9.073  20.516  0.00  0.00    -0.298 N 
ATOM      3  H   VAL A   2      13.710  -8.311  21.163  0.00  0.00    +0.150 HD
ATOM      4  O   HIS A   1      13.445 -10.306  18.719  0.00  0.00    -0.274 OA
ENDROOT
BRANCH   1   5
ATOM      5  CA  HIS A   1      11.824  -8.704  19.505  0.00  0.00    +0.151 C 
BRANCH   5   6
ATOM      6  N   HIS A   1      11.352  -8.456  20.867  0.00  0.00    -0.238 NA
ATOM      7  H   HIS A   1      11.363  -7.487  21.245  0.00  0.00    +0.142 HD
ENDBRANCH   5   6
BRANCH   5   8
ATOM      8  CB  HIS A   1      12.022  -7.384  18.751  0.00  0.00    +0.074 C 
BRANCH   8   9
ATOM      9  CG  HIS A   1      12.494  -7.556  17.339  0.00  0.00    +0.082 A 
ATOM     10  CD2 HIS A   1      13.731  -7.462  16.796  0.00  0.00    +0.115 A 
ATOM     11  NE2 HIS A   1      13.600  -7.695  15.448  0.00  0.00    -0.221 NA
ATOM     12  CE1 HIS A   1      12.329  -7.926  15.172  0.00  0.00    +0.199 A 
ATOM     13  ND1 HIS A   1      11.639  -7.849  16.296  0.00  0.00    -0.227 NA
ENDBRANCH   8   9
ENDBRANCH   5   8
ENDBRANCH   1   5
BRANCH   2  14
ATOM     14  CA  VAL A   2      15.295  -9.702  20.697  0.00  0.00    +0.137 C 
BRANCH  14  15
ATOM     15  CB  VAL A   2      16.102  -9.006  21.839  0.00  0.00    +0.026 C 
ATOM     16  CG2 VAL A   2      17.216  -9.904  22.349  0.00  0.00    +0.002 C 
ATOM     17  CG1 VAL A   2      16.703  -7.688  21.334  0.00  0.00    +0.002 C 
ENDBRANCH  14  15
BRANCH  14  18
ATOM     18  C   VAL A   2      15.079 -11.187  21.008  0.00  0.00    +0.227 C 
ATOM     19  O   VAL A   2      15.713 -12.052  20.412  0.00  0.00    -0.286 OA
ENDBRANCH  14  18
ENDBRANCH   2  14
TORSDOF 7
REMARK  Name = ../refined-set-2016/1fm9/1fm9_pocket.pdb
REMARK  266 active torsions:
REMARK  status: ('A' for Active; 'I' for Inactive)
REMARK    1  A    between atoms: _1  and  _3
REMARK    2  A    between atoms: _3  and  _4
REMARK    3  A    between atoms: _3  and  _6
REMARK    4  A    between atoms: _6  and  _7
REMARK    5  A    between atoms: _10  and  _12
REMARK    6  A    between atoms: _12  and  _13
REMARK    7  A    between atoms: _12  and  _15
REMARK    8  A    between atoms: _15  and  _16
REMARK    9  A    between atoms: _19  and  _21
REMARK   10  A    between atoms: _21  and  _22
REMARK   11  A    between atoms: _24  and  _26
REMARK   12  A    between atoms: _26  and  _27
REMARK   13  A    between atoms: _26  and  _29
REMARK   14  A    between atoms: _29  and  _30
REMARK   15  A    between atoms: _30  and  _31
REMARK   16  A    between atoms: _34  and  _36
REMARK   17  A    between atoms: _36  and  _37
REMARK   18  A    between atoms: _36  and  _39
REMARK   19  A    between atoms: _39  and  _40
REMARK   20  A    between atoms: _44  and  _45
REMARK   21  A    between atoms: _50  and  _52
REMARK   22  A    between atoms: _52  and  _53
REMARK   23  A    between atoms: _52  and  _55
REMARK   24  A    between atoms: _55  and  _56
REMARK   25  A    between atoms: _59  and  _61
REMARK   26  A    between atoms: _61  and  _62
REMARK   27  A    between atoms: _61  and  _64
REMARK   28  A    between atoms: _67  and  _69
REMARK   29  A    between atoms: _69  and  _70
REMARK   30  A    between atoms: _73  and  _75
REMARK   31  A    between atoms: _75  and  _76
REMARK   32  A    between atoms: _75  and  _78
REMARK   33  A    between atoms: _78  and  _79
REMARK   34  A    between atoms: _82  and  _84
REMARK   35  A    between atoms: _84  and  _85
REMARK   36  A    between atoms: _84  and  _87
REMARK   37  A    between atoms: _87  and  _88
REMARK   38  A    between atoms: _88  and  _89
REMARK   39  A    between atoms: _89  and  _90
REMARK   40  A    between atoms: _99  and  _101
REMARK   41  A    between atoms: _101  and  _102
REMARK   42  A    between atoms: _101  and  _104
REMARK   43  A    between atoms: _104  and  _105
REMARK   44  A    between atoms: _108  and  _110
REMARK   45  A    between atoms: _110  and  _111
REMARK   46  A    between atoms: _110  and  _113
REMARK   47  A    between atoms: _113  and  _114
REMARK   48  A    between atoms: _120  and  _122
REMARK   49  A    between atoms: _122  and  _123
REMARK   50  A    between atoms: _122  and  _125
REMARK   51  A    between atoms: _125  and  _126
REMARK   52  A    between atoms: _126  and  _127
REMARK   53  A    between atoms: _132  and  _134
REMARK   54  A    between atoms: _134  and  _135
REMARK   55  A    between atoms: _137  and  _139
REMARK   56  A    between atoms: _139  and  _140
REMARK   57  A    between atoms: _139  and  _142
REMARK   58  A    between atoms: _144  and  _146
REMARK   59  A    between atoms: _146  and  _147
REMARK   60  A    between atoms: _146  and  _149
REMARK   61  A    between atoms: _149  and  _150
REMARK   62  A    between atoms: _150  and  _151
REMARK   63  A    between atoms: _156  and  _158
REMARK   64  A    between atoms: _158  and  _159
REMARK   65  A    between atoms: _158  and  _161
REMARK   66  A    between atoms: _161  and  _162
REMARK   67  A    between atoms: _168  and  _170
REMARK   68  A    between atoms: _170  and  _171
REMARK   69  A    between atoms: _170  and  _173
REMARK   70  A    between atoms: _173  and  _174
REMARK   71  A    between atoms: _174  and  _175
REMARK   72  A    between atoms: _175  and  _176
REMARK   73  A    between atoms: _185  and  _187
REMARK   74  A    between atoms: _187  and  _188
REMARK   75  A    between atoms: _187  and  _190
REMARK   76  A    between atoms: _190  and  _191
REMARK   77  A    between atoms: _193  and  _195
REMARK   78  A    between atoms: _195  and  _196
REMARK   79  A    between atoms: _195  and  _198
REMARK   80  A    between atoms: _201  and  _203
REMARK   81  A    between atoms: _203  and  _204
REMARK   82  A    between atoms: _203  and  _206
REMARK   83  A    between atoms: _206  and  _207
REMARK   84  A    between atoms: _207  and  _208
REMARK   85  A    between atoms: _211  and  _213
REMARK   86  A    between atoms: _213  and  _214
REMARK   87  A    between atoms: _217  and  _219
REMARK   88  A    between atoms: _219  and  _220
REMARK   89  A    between atoms: _219  and  _222
REMARK   90  A    between atoms: _225  and  _227
REMARK   91  A    between atoms: _227  and  _228
REMARK   92  A    between atoms: _227  and  _230
REMARK   93  A    between atoms: _233  and  _235
REMARK   94  A    between atoms: _235  and  _236
REMARK   95  A    between atoms: _235  and  _238
REMARK   96  A    between atoms: _238  and  _239
REMARK   97  A    between atoms: _244  and  _246
REMARK   98  A    between atoms: _246  and  _247
REMARK   99  A    between atoms: _246  and  _249
REMARK  100  A    between atoms: _249  and  _250
REMARK  101  A    between atoms: _253  and  _255
REMARK  102  A    between atoms: _255  and  _256
REMARK  103  A    between atoms: _255  and  _258
REMARK  104  A    between atoms: _258  and  _259
REMARK  105  A    between atoms: _264  and  _265
REMARK  106  A    between atoms: _267  and  _269
REMARK  107  A    between atoms: _269  and  _270
REMARK  108  A    between atoms: _269  and  _272
REMARK  109  A    between atoms: _272  and  _273
REMARK  110  A    between atoms: _276  and  _278
REMARK  111  A    between atoms: _278  and  _279
REMARK  112  A    between atoms: _278  and  _281
REMARK  113  A    between atoms: _281  and  _282
REMARK  114  A    between atoms: _285  and  _287
REMARK  115  A    between atoms: _287  and  _288
REMARK  116  A    between atoms: _287  and  _290
REMARK  117  A    between atoms: _290  and  _291
REMARK  118  A    between atoms: _291  and  _292
REMARK  119  A    between atoms: _294  and  _296
REMARK  120  A    between atoms: _296  and  _297
REMARK  121  A    between atoms: _296  and  _299
REMARK  122  A    between atoms: _302  and  _304
REMARK  123  A    between atoms: _304  and  _305
REMARK  124  A    between atoms: _304  and  _307
REMARK  125  A    between atoms: _307  and  _308
REMARK  126  A    between atoms: _311  and  _313
REMARK  127  A    between atoms: _313  and  _314
REMARK  128  A    between atoms: _313  and  _316
REMARK  129  A    between atoms: _316  and  _317
REMARK  130  A    between atoms: _320  and  _322
REMARK  131  A    between atoms: _322  and  _323
REMARK  132  A    between atoms: _322  and  _325
REMARK  133  A    between atoms: _325  and  _326
REMARK  134  A    between atoms: _328  and  _330
REMARK  135  A    between atoms: _330  and  _331
REMARK  136  A    between atoms: _330  and  _333
REMARK  137  A    between atoms: _333  and  _334
REMARK  138  A    between atoms: _334  and  _335
REMARK  139  A    between atoms: _338  and  _340
REMARK  140  A    between atoms: _340  and  _341
REMARK  141  A    between atoms: _343  and  _345
REMARK  142  A    between atoms: _345  and  _346
REMARK  143  A    between atoms: _348  and  _350
REMARK  144  A    between atoms: _350  and  _351
REMARK  145  A    between atoms: _350  and  _353
REMARK  146  A    between atoms: _353  and  _354
REMARK  147  A    between atoms: _354  and  _355
REMARK  148  A    between atoms: _357  and  _359
REMARK  149  A    between atoms: _359  and  _360
REMARK  150  A    between atoms: _359  and  _362
REMARK  151  A    between atoms: _362  and  _363
REMARK  152  A    between atoms: _366  and  _368
REMARK  153  A    between atoms: _368  and  _369
REMARK  154  A    between atoms: _368  and  _371
REMARK  155  A    between atoms: _371  and  _372
REMARK  156  A    between atoms: _378  and  _380
REMARK  157  A    between atoms: _380  and  _381
REMARK  158  A    between atoms: _380  and  _383
REMARK  159  A    between atoms: _383  and  _384
REMARK  160  A    between atoms: _387  and  _389
REMARK  161  A    between atoms: _389  and  _390
REMARK  162  A    between atoms: _389  and  _392
REMARK  163  A    between atoms: _392  and  _393
REMARK  164  A    between atoms: _396  and  _398
REMARK  165  A    between atoms: _398  and  _399
REMARK  166  A    between atoms: _398  and  _401
REMARK  167  A    between atoms: _401  and  _402
REMARK  168  A    between atoms: _402  and  _403
REMARK  169  A    between atoms: _403  and  _404
REMARK  170  A    between atoms: _414  and  _415
REMARK  171  A    between atoms: _420  and  _422
REMARK  172  A    between atoms: _422  and  _423
REMARK  173  A    between atoms: _422  and  _425
REMARK  174  A    between atoms: _425  and  _426
REMARK  175  A    between atoms: _432  and  _434
REMARK  176  A    between atoms: _434  and  _435
REMARK  177  A    between atoms: _437  and  _439
REMARK  178  A    between atoms: _439  and  _440
REMARK  179  A    between atoms: _439  and  _442
REMARK  180  A    between atoms: _442  and  _443
REMARK  181  A    between atoms: _446  and  _448
REMARK  182  A    between atoms: _448  and  _449
REMARK  183  A    between atoms: _448  and  _451
REMARK  184  A    between atoms: _451  and  _452
REMARK  185  A    between atoms: _458  and  _460
REMARK  186  A    between atoms: _460  and  _461
REMARK  187  A    between atoms: _460  and  _463
REMARK  188  A    between atoms: _463  and  _464
REMARK  189  A    between atoms: _464  and  _465
REMARK  190  A    between atoms: _467  and  _469
REMARK  191  A    between atoms: _469  and  _470
REMARK  192  A    between atoms: _469  and  _472
REMARK  193  A    between atoms: _472  and  _473
REMARK  194  A    between atoms: _473  and  _474
REMARK  195  A    between atoms: _477  and  _479
REMARK  196  A    between atoms: _479  and  _480
REMARK  197  A    between atoms: _479  and  _482
REMARK  198  A    between atoms: _482  and  _483
REMARK  199  A    between atoms: _483  and  _484
REMARK  200  A    between atoms: _484  and  _485
REMARK  201  A    between atoms: _485  and  _486
REMARK  202  A    between atoms: _490  and  _492
REMARK  203  A    between atoms: _492  and  _493
REMARK  204  A    between atoms: _492  and  _495
REMARK  205  A    between atoms: _495  and  _496
REMARK  206  A    between atoms: _502  and  _504
REMARK  207  A    between atoms: _504  and  _505
REMARK  208  A    between atoms: _504  and  _507
REMARK  209  A    between atoms: _510  and  _512
REMARK  210  A    between atoms: _512  and  _513
REMARK  211  A    between atoms: _512  and  _515
REMARK  212  A    between atoms: _515  and  _516
REMARK  213  A    between atoms: _521  and  _523
REMARK  214  A    between atoms: _523  and  _524
REMARK  215  A    between atoms: _523  and  _526
REMARK  216  A    between atoms: _529  and  _531
REMARK  217  A    between atoms: _531  and  _532
REMARK  218  A    between atoms: _531  and  _534
REMARK  219  A    between atoms: _534  and  _535
REMARK  220  A    between atoms: _538  and  _540
REMARK  221  A    between atoms: _540  and  _541
REMARK  222  A    between atoms: _540  and  _543
REMARK  223  A    between atoms: _543  and  _544
REMARK  224  A    between atoms: _547  and  _549
REMARK  225  A    between atoms: _549  and  _550
REMARK  226  A    between atoms: _549  and  _552
REMARK  227  A    between atoms: _552  and  _553
REMARK  228  A    between atoms: _556  and  _558
REMARK  229  A    between atoms: _558  and  _559
REMARK  230  A    between atoms: _558  and  _561
REMARK  231  A    between atoms: _561  and  _562
REMARK  232  A    between atoms: _562  and  _563
REMARK  233  A    between atoms: _565  and  _567
REMARK  234  A    between atoms: _567  and  _568
REMARK  235  A    between atoms: _567  and  _570
REMARK  236  A    between atoms: _570  and  _571
REMARK  237  A    between atoms: _573  and  _575
REMARK  238  A    between atoms: _575  and  _576
REMARK  239  A    between atoms: _575  and  _578
REMARK  240  A    between atoms: _578  and  _579
REMARK  241  A    between atoms: _582  and  _584
REMARK  242  A    between atoms: _584  and  _585
REMARK  243  A    between atoms: _584  and  _587
REMARK  244  A    between atoms: _587  and  _588
REMARK  245  A    between atoms: _593  and  _595
REMARK  246  A    between atoms: _595  and  _596
REMARK  247  A    between atoms: _595  and  _598
REMARK  248  A    between atoms: _598  and  _599
REMARK  249  A    between atoms: _602  and  _604
REMARK  250  A    between atoms: _604  and  _605
REMARK  251  A    between atoms: _604  and  _607
REMARK  252  A    between atoms: _607  and  _608
REMARK  253  A    between atoms: _611  and  _613
REMARK  254  A    between atoms: _613  and  _614
REMARK  255  A    between atoms: _613  and  _616
REMARK  256  A    between atoms: _616  and  _617
REMARK  257  A    between atoms: _617  and  _618
REMARK  258  A    between atoms: _623  and  _625
REMARK  259  A    between atoms: _625  and  _626
REMARK  260  A    between atoms: _625  and  _628
REMARK  261  A    between atoms: _628  and  _629
REMARK  262  A    between atoms: _632  and  _634
REMARK  263  A    between atoms: _634  and  _635
REMARK  264  A    between atoms: _634  and  _637
REMARK  265  A    between atoms: _637  and  _638
REMARK  266  A    between atoms: _643  and  _644
REMARK                            x       y       z     vdW  Elec       q    Type
REMARK                         _______ _______ _______ _____ _____    ______ ____
ROOT
ATOM      1  C   LEU A   1      13.243 -13.886  18.038  0.00  0.00    +0.238 C 
ATOM      2  N   LEU A   2      14.233 -12.995  17.984  0.00  0.00    -0.298 N 
ATOM      3  H   LEU A   2      14.204 -12.147  18.586  0.00  0.00    +0.150 HD
ATOM      4  O   LEU A   1      13.201 -14.879  17.321  0.00  0.00    -0.274 OA
ENDROOT
BRANCH   1   5
ATOM      5  CA  LEU A   1      12.126 -13.616  19.042  0.00  0.00    +0.145 C 
BRANCH   5   6
ATOM      6  N   LEU A   1      12.644 -12.936  20.222  0.00  0.00    -0.238 NA
ATOM      7  H   LEU A   1      12.464 -11.921  20.360  0.00  0.00    +0.142 HD
ENDBRANCH   5   6
BRANCH   5   8
ATOM      8  CB  LEU A   1      11.014 -12.792  18.402  0.00  0.00    +0.026 C 
BRANCH   8   9
ATOM      9  CG  LEU A   1       9.581 -13.333  18.422  0.00  0.00    +0.002 C 
ATOM     10  CD2 LEU A   1       9.284 -14.220  19.642  0.00  0.00    +0.000 C 
ATOM     11  CD1 LEU A   1       8.661 -12.119  18.385  0.00  0.00    +0.000 C 
ENDBRANCH   8   9
ENDBRANCH   5   8
ENDBRANCH   1   5
BRANCH   2  12
ATOM     12  CA  LEU A   2      15.359 -13.212  17.077  0.00  0.00    +0.137 C 
BRANCH  12  13
ATOM     13  C   LEU A   2      16.155 -14.399  17.626  0.00  0.00    +0.227 C 
ATOM     14  O   LEU A   2      16.720 -15.171  16.861  0.00  0.00    -0.286 OA
ENDBRANCH  12  13
BRANCH  12  15
ATOM     15  CB  LEU A   2      16.243 -11.959  16.972  0.00  0.00    +0.028 C 
BRANCH  15  16
ATOM     16  CG  LEU A   2      15.846 -10.916  15.918  0.00  0.00    +0.002 C 
ATOM     17  CD2 LEU A   2      16.723  -9.674  16.024  0.00  0.00    +0.000 C 
ATOM     18  CD1 LEU A   2      15.966 -11.533  14.524  0.00  0.00    +0.000 C 
ENDBRANCH  15  16
ENDBRANCH  12  15
ENDBRANCH   2  12
TORSDOF 8
REMARK  Name = ../refined-set-2016/1fm9/1fm9_pocket.pdb
REMARK  266 active torsions:
REMARK  status: ('A' for Active; 'I' for Inactive)
REMARK    1  A    between atoms: _1  and  _3
REMARK    2  A    between atoms: _3  and  _4
REMARK    3  A    between atoms: _3  and  _6
REMARK    4  A    between atoms: _6  and  _7
REMARK    5  A    between atoms: _10  and  _12
REMARK    6  A    between atoms: _12  and  _13
REMARK    7  A    between atoms: _12  and  _15
REMARK    8  A    between atoms: _15  and  _16
REMARK    9  A    between atoms: _19  and  _21
REMARK   10  A    between atoms: _21  and  _22
REMARK   11  A    between atoms: _24  and  _26
REMARK   12  A    between atoms: _26  and  _27
REMARK   13  A    between atoms: _26  and  _29
REMARK   14  A    between atoms: _29  and  _30
REMARK   15  A    between atoms: _30  and  _31
REMARK   16  A    between atoms: _34  and  _36
REMARK   17  A    between atoms: _36  and  _37
REMARK   18  A    between atoms: _36  and  _39
REMARK   19  A    between atoms: _39  and  _40
REMARK   20  A    between atoms: _44  and  _45
REMARK   21  A    between atoms: _50  and  _52
REMARK   22  A    between atoms: _52  and  _53
REMARK   23  A    between atoms: _52  and  _55
REMARK   24  A    between atoms: _55  and  _56
REMARK   25  A    between atoms: _59  and  _61
REMARK   26  A    between atoms: _61  and  _62
REMARK   27  A    between atoms: _61  and  _64
REMARK   28  A    between atoms: _67  and  _69
REMARK   29  A    between atoms: _69  and  _70
REMARK   30  A    between atoms: _73  and  _75
REMARK   31  A    between atoms: _75  and  _76
REMARK   32  A    between atoms: _75  and  _78
REMARK   33  A    between atoms: _78  and  _79
REMARK   34  A    between atoms: _82  and  _84
REMARK   35  A    between atoms: _84  and  _85
REMARK   36  A    between atoms: _84  and  _87
REMARK   37  A    between atoms: _87  and  _88
REMARK   38  A    between atoms: _88  and  _89
REMARK   39  A    between atoms: _89  and  _90
REMARK   40  A    between atoms: _99  and  _101
REMARK   41  A    between atoms: _101  and  _102
REMARK   42  A    between atoms: _101  and  _104
REMARK   43  A    between atoms: _104  and  _105
REMARK   44  A    between atoms: _108  and  _110
REMARK   45  A    between atoms: _110  and  _111
REMARK   46  A    between atoms: _110  and  _113
REMARK   47  A    between atoms: _113  and  _114
REMARK   48  A    between atoms: _120  and  _122
REMARK   49  A    between atoms: _122  and  _123
REMARK   50  A    between atoms: _122  and  _125
REMARK   51  A    between atoms: _125  and  _126
REMARK   52  A    between atoms: _126  and  _127
REMARK   53  A    between atoms: _132  and  _134
REMARK   54  A    between atoms: _134  and  _135
REMARK   55  A    between atoms: _137  and  _139
REMARK   56  A    between atoms: _139  and  _140
REMARK   57  A    between atoms: _139  and  _142
REMARK   58  A    between atoms: _144  and  _146
REMARK   59  A    between atoms: _146  and  _147
REMARK   60  A    between atoms: _146  and  _149
REMARK   61  A    between atoms: _149  and  _150
REMARK   62  A    between atoms: _150  and  _151
REMARK   63  A    between atoms: _156  and  _158
REMARK   64  A    between atoms: _158  and  _159
REMARK   65  A    between atoms: _158  and  _161
REMARK   66  A    between atoms: _161  and  _162
REMARK   67  A    between atoms: _168  and  _170
REMARK   68  A    between atoms: _170  and  _171
REMARK   69  A    between atoms: _170  and  _173
REMARK   70  A    between atoms: _173  and  _174
REMARK   71  A    between atoms: _174  and  _175
REMARK   72  A    between atoms: _175  and  _176
REMARK   73  A    between atoms: _185  and  _187
REMARK   74  A    between atoms: _187  and  _188
REMARK   75  A    between atoms: _187  and  _190
REMARK   76  A    between atoms: _190  and  _191
REMARK   77  A    between atoms: _193  and  _195
REMARK   78  A    between atoms: _195  and  _196
REMARK   79  A    between atoms: _195  and  _198
REMARK   80  A    between atoms: _201  and  _203
REMARK   81  A    between atoms: _203  and  _204
REMARK   82  A    between atoms: _203  and  _206
REMARK   83  A    between atoms: _206  and  _207
REMARK   84  A    between atoms: _207  and  _208
REMARK   85  A    between atoms: _211  and  _213
REMARK   86  A    between atoms: _213  and  _214
REMARK   87  A    between atoms: _217  and  _219
REMARK   88  A    between atoms: _219  and  _220
REMARK   89  A    between atoms: _219  and  _222
REMARK   90  A    between atoms: _225  and  _227
REMARK   91  A    between atoms: _227  and  _228
REMARK   92  A    between atoms: _227  and  _230
REMARK   93  A    between atoms: _233  and  _235
REMARK   94  A    between atoms: _235  and  _236
REMARK   95  A    between atoms: _235  and  _238
REMARK   96  A    between atoms: _238  and  _239
REMARK   97  A    between atoms: _244  and  _246
REMARK   98  A    between atoms: _246  and  _247
REMARK   99  A    between atoms: _246  and  _249
REMARK  100  A    between atoms: _249  and  _250
REMARK  101  A    between atoms: _253  and  _255
REMARK  102  A    between atoms: _255  and  _256
REMARK  103  A    between atoms: _255  and  _258
REMARK  104  A    between atoms: _258  and  _259
REMARK  105  A    between atoms: _264  and  _265
REMARK  106  A    between atoms: _267  and  _269
REMARK  107  A    between atoms: _269  and  _270
REMARK  108  A    between atoms: _269  and  _272
REMARK  109  A    between atoms: _272  and  _273
REMARK  110  A    between atoms: _276  and  _278
REMARK  111  A    between atoms: _278  and  _279
REMARK  112  A    between atoms: _278  and  _281
REMARK  113  A    between atoms: _281  and  _282
REMARK  114  A    between atoms: _285  and  _287
REMARK  115  A    between atoms: _287  and  _288
REMARK  116  A    between atoms: _287  and  _290
REMARK  117  A    between atoms: _290  and  _291
REMARK  118  A    between atoms: _291  and  _292
REMARK  119  A    between atoms: _294  and  _296
REMARK  120  A    between atoms: _296  and  _297
REMARK  121  A    between atoms: _296  and  _299
REMARK  122  A    between atoms: _302  and  _304
REMARK  123  A    between atoms: _304  and  _305
REMARK  124  A    between atoms: _304  and  _307
REMARK  125  A    between atoms: _307  and  _308
REMARK  126  A    between atoms: _311  and  _313
REMARK  127  A    between atoms: _313  and  _314
REMARK  128  A    between atoms: _313  and  _316
REMARK  129  A    between atoms: _316  and  _317
REMARK  130  A    between atoms: _320  and  _322
REMARK  131  A    between atoms: _322  and  _323
REMARK  132  A    between atoms: _322  and  _325
REMARK  133  A    between atoms: _325  and  _326
REMARK  134  A    between atoms: _328  and  _330
REMARK  135  A    between atoms: _330  and  _331
REMARK  136  A    between atoms: _330  and  _333
REMARK  137  A    between atoms: _333  and  _334
REMARK  138  A    between atoms: _334  and  _335
REMARK  139  A    between atoms: _338  and  _340
REMARK  140  A    between atoms: _340  and  _341
REMARK  141  A    between atoms: _343  and  _345
REMARK  142  A    between atoms: _345  and  _346
REMARK  143  A    between atoms: _348  and  _350
REMARK  144  A    between atoms: _350  and  _351
REMARK  145  A    between atoms: _350  and  _353
REMARK  146  A    between atoms: _353  and  _354
REMARK  147  A    between atoms: _354  and  _355
REMARK  148  A    between atoms: _357  and  _359
REMARK  149  A    between atoms: _359  and  _360
REMARK  150  A    between atoms: _359  and  _362
REMARK  151  A    between atoms: _362  and  _363
REMARK  152  A    between atoms: _366  and  _368
REMARK  153  A    between atoms: _368  and  _369
REMARK  154  A    between atoms: _368  and  _371
REMARK  155  A    between atoms: _371  and  _372
REMARK  156  A    between atoms: _378  and  _380
REMARK  157  A    between atoms: _380  and  _381
REMARK  158  A    between atoms: _380  and  _383
REMARK  159  A    between atoms: _383  and  _384
REMARK  160  A    between atoms: _387  and  _389
REMARK  161  A    between atoms: _389  and  _390
REMARK  162  A    between atoms: _389  and  _392
REMARK  163  A    between atoms: _392  and  _393
REMARK  164  A    between atoms: _396  and  _398
REMARK  165  A    between atoms: _398  and  _399
REMARK  166  A    between atoms: _398  and  _401
REMARK  167  A    between atoms: _401  and  _402
REMARK  168  A    between atoms: _402  and  _403
REMARK  169  A    between atoms: _403  and  _404
REMARK  170  A    between atoms: _414  and  _415
REMARK  171  A    between atoms: _420  and  _422
REMARK  172  A    between atoms: _422  and  _423
REMARK  173  A    between atoms: _422  and  _425
REMARK  174  A    between atoms: _425  and  _426
REMARK  175  A    between atoms: _432  and  _434
REMARK  176  A    between atoms: _434  and  _435
REMARK  177  A    between atoms: _437  and  _439
REMARK  178  A    between atoms: _439  and  _440
REMARK  179  A    between atoms: _439  and  _442
REMARK  180  A    between atoms: _442  and  _443
REMARK  181  A    between atoms: _446  and  _448
REMARK  182  A    between atoms: _448  and  _449
REMARK  183  A    between atoms: _448  and  _451
REMARK  184  A    between atoms: _451  and  _452
REMARK  185  A    between atoms: _458  and  _460
REMARK  186  A    between atoms: _460  and  _461
REMARK  187  A    between atoms: _460  and  _463
REMARK  188  A    between atoms: _463  and  _464
REMARK  189  A    between atoms: _464  and  _465
REMARK  190  A    between atoms: _467  and  _469
REMARK  191  A    between atoms: _469  and  _470
REMARK  192  A    between atoms: _469  and  _472
REMARK  193  A    between atoms: _472  and  _473
REMARK  194  A    between atoms: _473  and  _474
REMARK  195  A    between atoms: _477  and  _479
REMARK  196  A    between atoms: _479  and  _480
REMARK  197  A    between atoms: _479  and  _482
REMARK  198  A    between atoms: _482  and  _483
REMARK  199  A    between atoms: _483  and  _484
REMARK  200  A    between atoms: _484  and  _485
REMARK  201  A    between atoms: _485  and  _486
REMARK  202  A    between atoms: _490  and  _492
REMARK  203  A    between atoms: _492  and  _493
REMARK  204  A    between atoms: _492  and  _495
REMARK  205  A    between atoms: _495  and  _496
REMARK  206  A    between atoms: _502  and  _504
REMARK  207  A    between atoms: _504  and  _505
REMARK  208  A    between atoms: _504  and  _507
REMARK  209  A    between atoms: _510  and  _512
REMARK  210  A    between atoms: _512  and  _513
REMARK  211  A    between atoms: _512  and  _515
REMARK  212  A    between atoms: _515  and  _516
REMARK  213  A    between atoms: _521  and  _523
REMARK  214  A    between atoms: _523  and  _524
REMARK  215  A    between atoms: _523  and  _526
REMARK  216  A    between atoms: _529  and  _531
REMARK  217  A    between atoms: _531  and  _532
REMARK  218  A    between atoms: _531  and  _534
REMARK  219  A    between atoms: _534  and  _535
REMARK  220  A    between atoms: _538  and  _540
REMARK  221  A    between atoms: _540  and  _541
REMARK  222  A    between atoms: _540  and  _543
REMARK  223  A    between atoms: _543  and  _544
REMARK  224  A    between atoms: _547  and  _549
REMARK  225  A    between atoms: _549  and  _550
REMARK  226  A    between atoms: _549  and  _552
REMARK  227  A    between atoms: _552  and  _553
REMARK  228  A    between atoms: _556  and  _558
REMARK  229  A    between atoms: _558  and  _559
REMARK  230  A    between atoms: _558  and  _561
REMARK  231  A    between atoms: _561  and  _562
REMARK  232  A    between atoms: _562  and  _563
REMARK  233  A    between atoms: _565  and  _567
REMARK  234  A    between atoms: _567  and  _568
REMARK  235  A    between atoms: _567  and  _570
REMARK  236  A    between atoms: _570  and  _571
REMARK  237  A    between atoms: _573  and  _575
REMARK  238  A    between atoms: _575  and  _576
REMARK  239  A    between atoms: _575  and  _578
REMARK  240  A    between atoms: _578  and  _579
REMARK  241  A    between atoms: _582  and  _584
REMARK  242  A    between atoms: _584  and  _585
REMARK  243  A    between atoms: _584  and  _587
REMARK  244  A    between atoms: _587  and  _588
REMARK  245  A    between atoms: _593  and  _595
REMARK  246  A    between atoms: _595  and  _596
REMARK  247  A    between atoms: _595  and  _598
REMARK  248  A    between atoms: _598  and  _599
REMARK  249  A    between atoms: _602  and  _604
REMARK  250  A    between atoms: _604  and  _605
REMARK  251  A    between atoms: _604  and  _607
REMARK  252  A    between atoms: _607  and  _608
REMARK  253  A    between atoms: _611  and  _613
REMARK  254  A    between atoms: _613  and  _614
REMARK  255  A    between atoms: _613  and  _616
REMARK  256  A    between atoms: _616  and  _617
REMARK  257  A    between atoms: _617  and  _618
REMARK  258  A    between atoms: _623  and  _625
REMARK  259  A    between atoms: _625  and  _626
REMARK  260  A    between atoms: _625  and  _628
REMARK  261  A    between atoms: _628  and  _629
REMARK  262  A    between atoms: _632  and  _634
REMARK  263  A    between atoms: _634  and  _635
REMARK  264  A    between atoms: _634  and  _637
REMARK  265  A    between atoms: _637  and  _638
REMARK  266  A    between atoms: _643  and  _644
REMARK                            x       y       z     vdW  Elec       q    Type
REMARK                         _______ _______ _______ _____ _____    ______ ____
ROOT
ATOM      1  CA  ILE A   1      15.211 -17.990  15.111  0.00  0.00    +0.133 C 
ENDROOT
BRANCH   1   2
ATOM      2  N   ILE A   1      14.804 -17.703  16.477  0.00  0.00    -0.239 NA
ATOM      3  H   ILE A   1      14.617 -16.720  16.762  0.00  0.00    +0.142 HD
ENDBRANCH   1   2
BRANCH   1   4
ATOM      4  C   ILE A   1      16.619 -18.579  15.122  0.00  0.00    +0.224 C 
ATOM      5  O   ILE A   1      16.890 -19.567  14.444  0.00  0.00    -0.287 OA
ENDBRANCH   1   4
BRANCH   1   6
ATOM      6  CB  ILE A   1      15.196 -16.715  14.237  0.00  0.00    +0.023 C 
ATOM      7  CG2 ILE A   1      15.792 -17.007  12.869  0.00  0.00    +0.002 C 
BRANCH   6   8
ATOM      8  CG1 ILE A   1      13.762 -16.214  14.074  0.00  0.00    +0.002 C 
ATOM      9  CD1 ILE A   1      13.640 -14.988  13.193  0.00  0.00    +0.000 C 
ENDBRANCH   6   8
ENDBRANCH   1   6
TORSDOF 4
REMARK  Name = ../refined-set-2016/1fm9/1fm9_pocket.pdb
REMARK  266 active torsions:
REMARK  status: ('A' for Active; 'I' for Inactive)
REMARK    1  A    between atoms: _1  and  _3
REMARK    2  A    between atoms: _3  and  _4
REMARK    3  A    between atoms: _3  and  _6
REMARK    4  A    between atoms: _6  and  _7
REMARK    5  A    between atoms: _10  and  _12
REMARK    6  A    between atoms: _12  and  _13
REMARK    7  A    between atoms: _12  and  _15
REMARK    8  A    between atoms: _15  and  _16
REMARK    9  A    between atoms: _19  and  _21
REMARK   10  A    between atoms: _21  and  _22
REMARK   11  A    between atoms: _24  and  _26
REMARK   12  A    between atoms: _26  and  _27
REMARK   13  A    between atoms: _26  and  _29
REMARK   14  A    between atoms: _29  and  _30
REMARK   15  A    between atoms: _30  and  _31
REMARK   16  A    between atoms: _34  and  _36
REMARK   17  A    between atoms: _36  and  _37
REMARK   18  A    between atoms: _36  and  _39
REMARK   19  A    between atoms: _39  and  _40
REMARK   20  A    between atoms: _44  and  _45
REMARK   21  A    between atoms: _50  and  _52
REMARK   22  A    between atoms: _52  and  _53
REMARK   23  A    between atoms: _52  and  _55
REMARK   24  A    between atoms: _55  and  _56
REMARK   25  A    between atoms: _59  and  _61
REMARK   26  A    between atoms: _61  and  _62
REMARK   27  A    between atoms: _61  and  _64
REMARK   28  A    between atoms: _67  and  _69
REMARK   29  A    between atoms: _69  and  _70
REMARK   30  A    between atoms: _73  and  _75
REMARK   31  A    between atoms: _75  and  _76
REMARK   32  A    between atoms: _75  and  _78
REMARK   33  A    between atoms: _78  and  _79
REMARK   34  A    between atoms: _82  and  _84
REMARK   35  A    between atoms: _84  and  _85
REMARK   36  A    between atoms: _84  and  _87
REMARK   37  A    between atoms: _87  and  _88
REMARK   38  A    between atoms: _88  and  _89
REMARK   39  A    between atoms: _89  and  _90
REMARK   40  A    between atoms: _99  and  _101
REMARK   41  A    between atoms: _101  and  _102
REMARK   42  A    between atoms: _101  and  _104
REMARK   43  A    between atoms: _104  and  _105
REMARK   44  A    between atoms: _108  and  _110
REMARK   45  A    between atoms: _110  and  _111
REMARK   46  A    between atoms: _110  and  _113
REMARK   47  A    between atoms: _113  and  _114
REMARK   48  A    between atoms: _120  and  _122
REMARK   49  A    between atoms: _122  and  _123
REMARK   50  A    between atoms: _122  and  _125
REMARK   51  A    between atoms: _125  and  _126
REMARK   52  A    between atoms: _126  and  _127
REMARK   53  A    between atoms: _132  and  _134
REMARK   54  A    between atoms: _134  and  _135
REMARK   55  A    between atoms: _137  and  _139
REMARK   56  A    between atoms: _139  and  _140
REMARK   57  A    between atoms: _139  and  _142
REMARK   58  A    between atoms: _144  and  _146
REMARK   59  A    between atoms: _146  and  _147
REMARK   60  A    between atoms: _146  and  _149
REMARK   61  A    between atoms: _149  and  _150
REMARK   62  A    between atoms: _150  and  _151
REMARK   63  A    between atoms: _156  and  _158
REMARK   64  A    between atoms: _158  and  _159
REMARK   65  A    between atoms: _158  and  _161
REMARK   66  A    between atoms: _161  and  _162
REMARK   67  A    between atoms: _168  and  _170
REMARK   68  A    between atoms: _170  and  _171
REMARK   69  A    between atoms: _170  and  _173
REMARK   70  A    between atoms: _173  and  _174
REMARK   71  A    between atoms: _174  and  _175
REMARK   72  A    between atoms: _175  and  _176
REMARK   73  A    between atoms: _185  and  _187
REMARK   74  A    between atoms: _187  and  _188
REMARK   75  A    between atoms: _187  and  _190
REMARK   76  A    between atoms: _190  and  _191
REMARK   77  A    between atoms: _193  and  _195
REMARK   78  A    between atoms: _195  and  _196
REMARK   79  A    between atoms: _195  and  _198
REMARK   80  A    between atoms: _201  and  _203
REMARK   81  A    between atoms: _203  and  _204
REMARK   82  A    between atoms: _203  and  _206
REMARK   83  A    between atoms: _206  and  _207
REMARK   84  A    between atoms: _207  and  _208
REMARK   85  A    between atoms: _211  and  _213
REMARK   86  A    between atoms: _213  and  _214
REMARK   87  A    between atoms: _217  and  _219
REMARK   88  A    between atoms: _219  and  _220
REMARK   89  A    between atoms: _219  and  _222
REMARK   90  A    between atoms: _225  and  _227
REMARK   91  A    between atoms: _227  and  _228
REMARK   92  A    between atoms: _227  and  _230
REMARK   93  A    between atoms: _233  and  _235
REMARK   94  A    between atoms: _235  and  _236
REMARK   95  A    between atoms: _235  and  _238
REMARK   96  A    between atoms: _238  and  _239
REMARK   97  A    between atoms: _244  and  _246
REMARK   98  A    between atoms: _246  and  _247
REMARK   99  A    between atoms: _246  and  _249
REMARK  100  A    between atoms: _249  and  _250
REMARK  101  A    between atoms: _253  and  _255
REMARK  102  A    between atoms: _255  and  _256
REMARK  103  A    between atoms: _255  and  _258
REMARK  104  A    between atoms: _258  and  _259
REMARK  105  A    between atoms: _264  and  _265
REMARK  106  A    between atoms: _267  and  _269
REMARK  107  A    between atoms: _269  and  _270
REMARK  108  A    between atoms: _269  and  _272
REMARK  109  A    between atoms: _272  and  _273
REMARK  110  A    between atoms: _276  and  _278
REMARK  111  A    between atoms: _278  and  _279
REMARK  112  A    between atoms: _278  and  _281
REMARK  113  A    between atoms: _281  and  _282
REMARK  114  A    between atoms: _285  and  _287
REMARK  115  A    between atoms: _287  and  _288
REMARK  116  A    between atoms: _287  and  _290
REMARK  117  A    between atoms: _290  and  _291
REMARK  118  A    between atoms: _291  and  _292
REMARK  119  A    between atoms: _294  and  _296
REMARK  120  A    between atoms: _296  and  _297
REMARK  121  A    between atoms: _296  and  _299
REMARK  122  A    between atoms: _302  and  _304
REMARK  123  A    between atoms: _304  and  _305
REMARK  124  A    between atoms: _304  and  _307
REMARK  125  A    between atoms: _307  and  _308
REMARK  126  A    between atoms: _311  and  _313
REMARK  127  A    between atoms: _313  and  _314
REMARK  128  A    between atoms: _313  and  _316
REMARK  129  A    between atoms: _316  and  _317
REMARK  130  A    between atoms: _320  and  _322
REMARK  131  A    between atoms: _322  and  _323
REMARK  132  A    between atoms: _322  and  _325
REMARK  133  A    between atoms: _325  and  _326
REMARK  134  A    between atoms: _328  and  _330
REMARK  135  A    between atoms: _330  and  _331
REMARK  136  A    between atoms: _330  and  _333
REMARK  137  A    between atoms: _333  and  _334
REMARK  138  A    between atoms: _334  and  _335
REMARK  139  A    between atoms: _338  and  _340
REMARK  140  A    between atoms: _340  and  _341
REMARK  141  A    between atoms: _343  and  _345
REMARK  142  A    between atoms: _345  and  _346
REMARK  143  A    between atoms: _348  and  _350
REMARK  144  A    between atoms: _350  and  _351
REMARK  145  A    between atoms: _350  and  _353
REMARK  146  A    between atoms: _353  and  _354
REMARK  147  A    between atoms: _354  and  _355
REMARK  148  A    between atoms: _357  and  _359
REMARK  149  A    between atoms: _359  and  _360
REMARK  150  A    between atoms: _359  and  _362
REMARK  151  A    between atoms: _362  and  _363
REMARK  152  A    between atoms: _366  and  _368
REMARK  153  A    between atoms: _368  and  _369
REMARK  154  A    between atoms: _368  and  _371
REMARK  155  A    between atoms: _371  and  _372
REMARK  156  A    between atoms: _378  and  _380
REMARK  157  A    between atoms: _380  and  _381
REMARK  158  A    between atoms: _380  and  _383
REMARK  159  A    between atoms: _383  and  _384
REMARK  160  A    between atoms: _387  and  _389
REMARK  161  A    between atoms: _389  and  _390
REMARK  162  A    between atoms: _389  and  _392
REMARK  163  A    between atoms: _392  and  _393
REMARK  164  A    between atoms: _396  and  _398
REMARK  165  A    between atoms: _398  and  _399
REMARK  166  A    between atoms: _398  and  _401
REMARK  167  A    between atoms: _401  and  _402
REMARK  168  A    between atoms: _402  and  _403
REMARK  169  A    between atoms: _403  and  _404
REMARK  170  A    between atoms: _414  and  _415
REMARK  171  A    between atoms: _420  and  _422
REMARK  172  A    between atoms: _422  and  _423
REMARK  173  A    between atoms: _422  and  _425
REMARK  174  A    between atoms: _425  and  _426
REMARK  175  A    between atoms: _432  and  _434
REMARK  176  A    between atoms: _434  and  _435
REMARK  177  A    between atoms: _437  and  _439
REMARK  178  A    between atoms: _439  and  _440
REMARK  179  A    between atoms: _439  and  _442
REMARK  180  A    between atoms: _442  and  _443
REMARK  181  A    between atoms: _446  and  _448
REMARK  182  A    between atoms: _448  and  _449
REMARK  183  A    between atoms: _448  and  _451
REMARK  184  A    between atoms: _451  and  _452
REMARK  185  A    between atoms: _458  and  _460
REMARK  186  A    between atoms: _460  and  _461
REMARK  187  A    between atoms: _460  and  _463
REMARK  188  A    between atoms: _463  and  _464
REMARK  189  A    between atoms: _464  and  _465
REMARK  190  A    between atoms: _467  and  _469
REMARK  191  A    between atoms: _469  and  _470
REMARK  192  A    between atoms: _469  and  _472
REMARK  193  A    between atoms: _472  and  _473
REMARK  194  A    between atoms: _473  and  _474
REMARK  195  A    between atoms: _477  and  _479
REMARK  196  A    between atoms: _479  and  _480
REMARK  197  A    between atoms: _479  and  _482
REMARK  198  A    between atoms: _482  and  _483
REMARK  199  A    between atoms: _483  and  _484
REMARK  200  A    between atoms: _484  and  _485
REMARK  201  A    between atoms: _485  and  _486
REMARK  202  A    between atoms: _490  and  _492
REMARK  203  A    between atoms: _492  and  _493
REMARK  204  A    between atoms: _492  and  _495
REMARK  205  A    between atoms: _495  and  _496
REMARK  206  A    between atoms: _502  and  _504
REMARK  207  A    between atoms: _504  and  _505
REMARK  208  A    between atoms: _504  and  _507
REMARK  209  A    between atoms: _510  and  _512
REMARK  210  A    between atoms: _512  and  _513
REMARK  211  A    between atoms: _512  and  _515
REMARK  212  A    between atoms: _515  and  _516
REMARK  213  A    between atoms: _521  and  _523
REMARK  214  A    between atoms: _523  and  _524
REMARK  215  A    between atoms: _523  and  _526
REMARK  216  A    between atoms: _529  and  _531
REMARK  217  A    between atoms: _531  and  _532
REMARK  218  A    between atoms: _531  and  _534
REMARK  219  A    between atoms: _534  and  _535
REMARK  220  A    between atoms: _538  and  _540
REMARK  221  A    between atoms: _540  and  _541
REMARK  222  A    between atoms: _540  and  _543
REMARK  223  A    between atoms: _543  and  _544
REMARK  224  A    between atoms: _547  and  _549
REMARK  225  A    between atoms: _549  and  _550
REMARK  226  A    between atoms: _549  and  _552
REMARK  227  A    between atoms: _552  and  _553
REMARK  228  A    between atoms: _556  and  _558
REMARK  229  A    between atoms: _558  and  _559
REMARK  230  A    between atoms: _558  and  _561
REMARK  231  A    between atoms: _561  and  _562
REMARK  232  A    between atoms: _562  and  _563
REMARK  233  A    between atoms: _565  and  _567
REMARK  234  A    between atoms: _567  and  _568
REMARK  235  A    between atoms: _567  and  _570
REMARK  236  A    between atoms: _570  and  _571
REMARK  237  A    between atoms: _573  and  _575
REMARK  238  A    between atoms: _575  and  _576
REMARK  239  A    between atoms: _575  and  _578
REMARK  240  A    between atoms: _578  and  _579
REMARK  241  A    between atoms: _582  and  _584
REMARK  242  A    between atoms: _584  and  _585
REMARK  243  A    between atoms: _584  and  _587
REMARK  244  A    between atoms: _587  and  _588
REMARK  245  A    between atoms: _593  and  _595
REMARK  246  A    between atoms: _595  and  _596
REMARK  247  A    between atoms: _595  and  _598
REMARK  248  A    between atoms: _598  and  _599
REMARK  249  A    between atoms: _602  and  _604
REMARK  250  A    between atoms: _604  and  _605
REMARK  251  A    between atoms: _604  and  _607
REMARK  252  A    between atoms: _607  and  _608
REMARK  253  A    between atoms: _611  and  _613
REMARK  254  A    between atoms: _613  and  _614
REMARK  255  A    between atoms: _613  and  _616
REMARK  256  A    between atoms: _616  and  _617
REMARK  257  A    between atoms: _617  and  _618
REMARK  258  A    between atoms: _623  and  _625
REMARK  259  A    between atoms: _625  and  _626
REMARK  260  A    between atoms: _625  and  _628
REMARK  261  A    between atoms: _628  and  _629
REMARK  262  A    between atoms: _632  and  _634
REMARK  263  A    between atoms: _634  and  _635
REMARK  264  A    between atoms: _634  and  _637
REMARK  265  A    between atoms: _637  and  _638
REMARK  266  A    between atoms: _643  and  _644
REMARK                            x       y       z     vdW  Elec       q    Type
REMARK                         _______ _______ _______ _____ _____    ______ ____
ROOT
ATOM      1  C   SER A   2      22.448 -13.742   9.480  0.00  0.00    +0.243 C 
ATOM      2  N   LEU A   3      22.844 -13.019  10.520  0.00  0.00    -0.297 N 
ATOM      3  H   LEU A   3      23.520 -13.425  11.198  0.00  0.00    +0.150 HD
ATOM      4  O   SER A   2      21.652 -13.317   8.641  0.00  0.00    -0.273 OA
ENDROOT
BRANCH   2   5
ATOM      5  CA  LEU A   3      22.347 -11.664  10.727  0.00  0.00    +0.149 C 
BRANCH   5   6
ATOM      6  C   LEU A   3      23.453 -10.683  10.318  0.00  0.00    +0.241 C 
ATOM      7  O   LEU A   3      24.616 -10.880  10.655  0.00  0.00    -0.273 OA
ATOM      8  N   HIS A   4      23.082  -9.646   9.574  0.00  0.00    -0.298 N 
ATOM      9  H   HIS A   4      22.082  -9.545   9.308  0.00  0.00    +0.150 HD
BRANCH   8  10
ATOM     10  CA  HIS A   4      24.043  -8.645   9.121  0.00  0.00    +0.143 C 
BRANCH  10  11
ATOM     11  C   HIS A   4      24.960  -8.196  10.276  0.00  0.00    +0.227 C 
ATOM     12  O   HIS A   4      24.504  -8.018  11.407  0.00  0.00    -0.286 OA
ENDBRANCH  10  11
BRANCH  10  13
ATOM     13  CB  HIS A   4      23.289  -7.452   8.528  0.00  0.00    +0.075 C 
BRANCH  13  14
ATOM     14  CG  HIS A   4      24.183  -6.348   8.042  0.00  0.00    +0.082 A 
ATOM     15  CD2 HIS A   4      24.999  -5.502   8.728  0.00  0.00    +0.115 A 
ATOM     16  NE2 HIS A   4      25.635  -4.719   7.803  0.00  0.00    -0.221 NA
ATOM     17  CE1 HIS A   4      25.220  -5.064   6.598  0.00  0.00    +0.199 A 
ATOM     18  ND1 HIS A   4      24.337  -6.049   6.710  0.00  0.00    -0.227 NA
ENDBRANCH  13  14
ENDBRANCH  10  13
ENDBRANCH   8  10
ENDBRANCH   5   6
BRANCH   5  19
ATOM     19  CB  LEU A   3      21.973 -11.477  12.201  0.00  0.00    +0.029 C 
BRANCH  19  20
ATOM     20  CG  LEU A   3      20.710 -10.722  12.619  0.00  0.00    +0.002 C 
ATOM     21  CD2 LEU A   3      20.604 -10.788  14.136  0.00  0.00    +0.000 C 
ATOM     22  CD1 LEU A   3      19.462 -11.327  11.979  0.00  0.00    +0.000 C 
ENDBRANCH  19  20
ENDBRANCH   5  19
ENDBRANCH   2   5
BRANCH   1  23
ATOM     23  CA  SER A   2      23.049 -15.151   9.369  0.00  0.00    +0.178 C 
BRANCH  23  25
ATOM     24  C   MET A   1      21.035 -16.436   9.958  0.00  0.00    +0.238 C 
ATOM     25  N   SER A   2      22.329 -16.172  10.133  0.00  0.00    -0.295 N 
ATOM     26  H   SER A   2      22.853 -16.717  10.847  0.00  0.00    +0.150 HD
ATOM     27  O   MET A   1      20.330 -15.853   9.133  0.00  0.00    -0.274 OA
BRANCH  24  28
ATOM     28  CA  MET A   1      20.452 -17.545  10.828  0.00  0.00    +0.146 C 
BRANCH  28  29
ATOM     29  N   MET A   1      21.053 -18.789  10.379  0.00  0.00    -0.238 NA
ATOM     30  H   MET A   1      21.668 -19.313  11.034  0.00  0.00    +0.142 HD
ENDBRANCH  28  29
BRANCH  28  31
ATOM     31  CB  MET A   1      20.804 -17.302  12.311  0.00  0.00    +0.038 C 
BRANCH  31  32
ATOM     32  CG  MET A   1      19.629 -16.846  13.190  0.00  0.00    +0.060 C 
BRANCH  32  33
ATOM     33  SD  MET A   1      19.204 -15.082  13.120  0.00  0.00    -0.139 S 
ATOM     34  CE  MET A   1      19.747 -14.513  14.749  0.00  0.00    +0.069 C 
ENDBRANCH  32  33
ENDBRANCH  31  32
ENDBRANCH  28  31
ENDBRANCH  24  28
ENDBRANCH  23  25
BRANCH  23  35
ATOM     35  CB  SER A   2      23.151 -15.565   7.890  0.00  0.00    +0.166 C 
BRANCH  35  36
ATOM     36  OG  SER A   2      21.880 -15.699   7.274  0.00  0.00    -0.380 OA
ATOM     37  H   SER A   2      21.401 -14.834   7.316  0.00  0.00    +0.211 HD
ENDBRANCH  35  36
ENDBRANCH  23  35
ENDBRANCH   1  23
TORSDOF 17
REMARK  Name = ../refined-set-2016/1fm9/1fm9_pocket.pdb
REMARK  266 active torsions:
REMARK  status: ('A' for Active; 'I' for Inactive)
REMARK    1  A    between atoms: _1  and  _3
REMARK    2  A    between atoms: _3  and  _4
REMARK    3  A    between atoms: _3  and  _6
REMARK    4  A    between atoms: _6  and  _7
REMARK    5  A    between atoms: _10  and  _12
REMARK    6  A    between atoms: _12  and  _13
REMARK    7  A    between atoms: _12  and  _15
REMARK    8  A    between atoms: _15  and  _16
REMARK    9  A    between atoms: _19  and  _21
REMARK   10  A    between atoms: _21  and  _22
REMARK   11  A    between atoms: _24  and  _26
REMARK   12  A    between atoms: _26  and  _27
REMARK   13  A    between atoms: _26  and  _29
REMARK   14  A    between atoms: _29  and  _30
REMARK   15  A    between atoms: _30  and  _31
REMARK   16  A    between atoms: _34  and  _36
REMARK   17  A    between atoms: _36  and  _37
REMARK   18  A    between atoms: _36  and  _39
REMARK   19  A    between atoms: _39  and  _40
REMARK   20  A    between atoms: _44  and  _45
REMARK   21  A    between atoms: _50  and  _52
REMARK   22  A    between atoms: _52  and  _53
REMARK   23  A    between atoms: _52  and  _55
REMARK   24  A    between atoms: _55  and  _56
REMARK   25  A    between atoms: _59  and  _61
REMARK   26  A    between atoms: _61  and  _62
REMARK   27  A    between atoms: _61  and  _64
REMARK   28  A    between atoms: _67  and  _69
REMARK   29  A    between atoms: _69  and  _70
REMARK   30  A    between atoms: _73  and  _75
REMARK   31  A    between atoms: _75  and  _76
REMARK   32  A    between atoms: _75  and  _78
REMARK   33  A    between atoms: _78  and  _79
REMARK   34  A    between atoms: _82  and  _84
REMARK   35  A    between atoms: _84  and  _85
REMARK   36  A    between atoms: _84  and  _87
REMARK   37  A    between atoms: _87  and  _88
REMARK   38  A    between atoms: _88  and  _89
REMARK   39  A    between atoms: _89  and  _90
REMARK   40  A    between atoms: _99  and  _101
REMARK   41  A    between atoms: _101  and  _102
REMARK   42  A    between atoms: _101  and  _104
REMARK   43  A    between atoms: _104  and  _105
REMARK   44  A    between atoms: _108  and  _110
REMARK   45  A    between atoms: _110  and  _111
REMARK   46  A    between atoms: _110  and  _113
REMARK   47  A    between atoms: _113  and  _114
REMARK   48  A    between atoms: _120  and  _122
REMARK   49  A    between atoms: _122  and  _123
REMARK   50  A    between atoms: _122  and  _125
REMARK   51  A    between atoms: _125  and  _126
REMARK   52  A    between atoms: _126  and  _127
REMARK   53  A    between atoms: _132  and  _134
REMARK   54  A    between atoms: _134  and  _135
REMARK   55  A    between atoms: _137  and  _139
REMARK   56  A    between atoms: _139  and  _140
REMARK   57  A    between atoms: _139  and  _142
REMARK   58  A    between atoms: _144  and  _146
REMARK   59  A    between atoms: _146  and  _147
REMARK   60  A    between atoms: _146  and  _149
REMARK   61  A    between atoms: _149  and  _150
REMARK   62  A    between atoms: _150  and  _151
REMARK   63  A    between atoms: _156  and  _158
REMARK   64  A    between atoms: _158  and  _159
REMARK   65  A    between atoms: _158  and  _161
REMARK   66  A    between atoms: _161  and  _162
REMARK   67  A    between atoms: _168  and  _170
REMARK   68  A    between atoms: _170  and  _171
REMARK   69  A    between atoms: _170  and  _173
REMARK   70  A    between atoms: _173  and  _174
REMARK   71  A    between atoms: _174  and  _175
REMARK   72  A    between atoms: _175  and  _176
REMARK   73  A    between atoms: _185  and  _187
REMARK   74  A    between atoms: _187  and  _188
REMARK   75  A    between atoms: _187  and  _190
REMARK   76  A    between atoms: _190  and  _191
REMARK   77  A    between atoms: _193  and  _195
REMARK   78  A    between atoms: _195  and  _196
REMARK   79  A    between atoms: _195  and  _198
REMARK   80  A    between atoms: _201  and  _203
REMARK   81  A    between atoms: _203  and  _204
REMARK   82  A    between atoms: _203  and  _206
REMARK   83  A    between atoms: _206  and  _207
REMARK   84  A    between atoms: _207  and  _208
REMARK   85  A    between atoms: _211  and  _213
REMARK   86  A    between atoms: _213  and  _214
REMARK   87  A    between atoms: _217  and  _219
REMARK   88  A    between atoms: _219  and  _220
REMARK   89  A    between atoms: _219  and  _222
REMARK   90  A    between atoms: _225  and  _227
REMARK   91  A    between atoms: _227  and  _228
REMARK   92  A    between atoms: _227  and  _230
REMARK   93  A    between atoms: _233  and  _235
REMARK   94  A    between atoms: _235  and  _236
REMARK   95  A    between atoms: _235  and  _238
REMARK   96  A    between atoms: _238  and  _239
REMARK   97  A    between atoms: _244  and  _246
REMARK   98  A    between atoms: _246  and  _247
REMARK   99  A    between atoms: _246  and  _249
REMARK  100  A    between atoms: _249  and  _250
REMARK  101  A    between atoms: _253  and  _255
REMARK  102  A    between atoms: _255  and  _256
REMARK  103  A    between atoms: _255  and  _258
REMARK  104  A    between atoms: _258  and  _259
REMARK  105  A    between atoms: _264  and  _265
REMARK  106  A    between atoms: _267  and  _269
REMARK  107  A    between atoms: _269  and  _270
REMARK  108  A    between atoms: _269  and  _272
REMARK  109  A    between atoms: _272  and  _273
REMARK  110  A    between atoms: _276  and  _278
REMARK  111  A    between atoms: _278  and  _279
REMARK  112  A    between atoms: _278  and  _281
REMARK  113  A    between atoms: _281  and  _282
REMARK  114  A    between atoms: _285  and  _287
REMARK  115  A    between atoms: _287  and  _288
REMARK  116  A    between atoms: _287  and  _290
REMARK  117  A    between atoms: _290  and  _291
REMARK  118  A    between atoms: _291  and  _292
REMARK  119  A    between atoms: _294  and  _296
REMARK  120  A    between atoms: _296  and  _297
REMARK  121  A    between atoms: _296  and  _299
REMARK  122  A    between atoms: _302  and  _304
REMARK  123  A    between atoms: _304  and  _305
REMARK  124  A    between atoms: _304  and  _307
REMARK  125  A    between atoms: _307  and  _308
REMARK  126  A    between atoms: _311  and  _313
REMARK  127  A    between atoms: _313  and  _314
REMARK  128  A    between atoms: _313  and  _316
REMARK  129  A    between atoms: _316  and  _317
REMARK  130  A    between atoms: _320  and  _322
REMARK  131  A    between atoms: _322  and  _323
REMARK  132  A    between atoms: _322  and  _325
REMARK  133  A    between atoms: _325  and  _326
REMARK  134  A    between atoms: _328  and  _330
REMARK  135  A    between atoms: _330  and  _331
REMARK  136  A    between atoms: _330  and  _333
REMARK  137  A    between atoms: _333  and  _334
REMARK  138  A    between atoms: _334  and  _335
REMARK  139  A    between atoms: _338  and  _340
REMARK  140  A    between atoms: _340  and  _341
REMARK  141  A    between atoms: _343  and  _345
REMARK  142  A    between atoms: _345  and  _346
REMARK  143  A    between atoms: _348  and  _350
REMARK  144  A    between atoms: _350  and  _351
REMARK  145  A    between atoms: _350  and  _353
REMARK  146  A    between atoms: _353  and  _354
REMARK  147  A    between atoms: _354  and  _355
REMARK  148  A    between atoms: _357  and  _359
REMARK  149  A    between atoms: _359  and  _360
REMARK  150  A    between atoms: _359  and  _362
REMARK  151  A    between atoms: _362  and  _363
REMARK  152  A    between atoms: _366  and  _368
REMARK  153  A    between atoms: _368  and  _369
REMARK  154  A    between atoms: _368  and  _371
REMARK  155  A    between atoms: _371  and  _372
REMARK  156  A    between atoms: _378  and  _380
REMARK  157  A    between atoms: _380  and  _381
REMARK  158  A    between atoms: _380  and  _383
REMARK  159  A    between atoms: _383  and  _384
REMARK  160  A    between atoms: _387  and  _389
REMARK  161  A    between atoms: _389  and  _390
REMARK  162  A    between atoms: _389  and  _392
REMARK  163  A    between atoms: _392  and  _393
REMARK  164  A    between atoms: _396  and  _398
REMARK  165  A    between atoms: _398  and  _399
REMARK  166  A    between atoms: _398  and  _401
REMARK  167  A    between atoms: _401  and  _402
REMARK  168  A    between atoms: _402  and  _403
REMARK  169  A    between atoms: _403  and  _404
REMARK  170  A    between atoms: _414  and  _415
REMARK  171  A    between atoms: _420  and  _422
REMARK  172  A    between atoms: _422  and  _423
REMARK  173  A    between atoms: _422  and  _425
REMARK  174  A    between atoms: _425  and  _426
REMARK  175  A    between atoms: _432  and  _434
REMARK  176  A    between atoms: _434  and  _435
REMARK  177  A    between atoms: _437  and  _439
REMARK  178  A    between atoms: _439  and  _440
REMARK  179  A    between atoms: _439  and  _442
REMARK  180  A    between atoms: _442  and  _443
REMARK  181  A    between atoms: _446  and  _448
REMARK  182  A    between atoms: _448  and  _449
REMARK  183  A    between atoms: _448  and  _451
REMARK  184  A    between atoms: _451  and  _452
REMARK  185  A    between atoms: _458  and  _460
REMARK  186  A    between atoms: _460  and  _461
REMARK  187  A    between atoms: _460  and  _463
REMARK  188  A    between atoms: _463  and  _464
REMARK  189  A    between atoms: _464  and  _465
REMARK  190  A    between atoms: _467  and  _469
REMARK  191  A    between atoms: _469  and  _470
REMARK  192  A    between atoms: _469  and  _472
REMARK  193  A    between atoms: _472  and  _473
REMARK  194  A    between atoms: _473  and  _474
REMARK  195  A    between atoms: _477  and  _479
REMARK  196  A    between atoms: _479  and  _480
REMARK  197  A    between atoms: _479  and  _482
REMARK  198  A    between atoms: _482  and  _483
REMARK  199  A    between atoms: _483  and  _484
REMARK  200  A    between atoms: _484  and  _485
REMARK  201  A    between atoms: _485  and  _486
REMARK  202  A    between atoms: _490  and  _492
REMARK  203  A    between atoms: _492  and  _493
REMARK  204  A    between atoms: _492  and  _495
REMARK  205  A    between atoms: _495  and  _496
REMARK  206  A    between atoms: _502  and  _504
REMARK  207  A    between atoms: _504  and  _505
REMARK  208  A    between atoms: _504  and  _507
REMARK  209  A    between atoms: _510  and  _512
REMARK  210  A    between atoms: _512  and  _513
REMARK  211  A    between atoms: _512  and  _515
REMARK  212  A    between atoms: _515  and  _516
REMARK  213  A    between atoms: _521  and  _523
REMARK  214  A    between atoms: _523  and  _524
REMARK  215  A    between atoms: _523  and  _526
REMARK  216  A    between atoms: _529  and  _531
REMARK  217  A    between atoms: _531  and  _532
REMARK  218  A    between atoms: _531  and  _534
REMARK  219  A    between atoms: _534  and  _535
REMARK  220  A    between atoms: _538  and  _540
REMARK  221  A    between atoms: _540  and  _541
REMARK  222  A    between atoms: _540  and  _543
REMARK  223  A    between atoms: _543  and  _544
REMARK  224  A    between atoms: _547  and  _549
REMARK  225  A    between atoms: _549  and  _550
REMARK  226  A    between atoms: _549  and  _552
REMARK  227  A    between atoms: _552  and  _553
REMARK  228  A    between atoms: _556  and  _558
REMARK  229  A    between atoms: _558  and  _559
REMARK  230  A    between atoms: _558  and  _561
REMARK  231  A    between atoms: _561  and  _562
REMARK  232  A    between atoms: _562  and  _563
REMARK  233  A    between atoms: _565  and  _567
REMARK  234  A    between atoms: _567  and  _568
REMARK  235  A    between atoms: _567  and  _570
REMARK  236  A    between atoms: _570  and  _571
REMARK  237  A    between atoms: _573  and  _575
REMARK  238  A    between atoms: _575  and  _576
REMARK  239  A    between atoms: _575  and  _578
REMARK  240  A    between atoms: _578  and  _579
REMARK  241  A    between atoms: _582  and  _584
REMARK  242  A    between atoms: _584  and  _585
REMARK  243  A    between atoms: _584  and  _587
REMARK  244  A    between atoms: _587  and  _588
REMARK  245  A    between atoms: _593  and  _595
REMARK  246  A    between atoms: _595  and  _596
REMARK  247  A    between atoms: _595  and  _598
REMARK  248  A    between atoms: _598  and  _599
REMARK  249  A    between atoms: _602  and  _604
REMARK  250  A    between atoms: _604  and  _605
REMARK  251  A    between atoms: _604  and  _607
REMARK  252  A    between atoms: _607  and  _608
REMARK  253  A    between atoms: _611  and  _613
REMARK  254  A    between atoms: _613  and  _614
REMARK  255  A    between atoms: _613  and  _616
REMARK  256  A    between atoms: _616  and  _617
REMARK  257  A    between atoms: _617  and  _618
REMARK  258  A    between atoms: _623  and  _625
REMARK  259  A    between atoms: _625  and  _626
REMARK  260  A    between atoms: _625  and  _628
REMARK  261  A    between atoms: _628  and  _629
REMARK  262  A    between atoms: _632  and  _634
REMARK  263  A    between atoms: _634  and  _635
REMARK  264  A    between atoms: _634  and  _637
REMARK  265  A    between atoms: _637  and  _638
REMARK  266  A    between atoms: _643  and  _644
REMARK                            x       y       z     vdW  Elec       q    Type
REMARK                         _______ _______ _______ _____ _____    ______ ____
ROOT
ATOM      1  CA  LEU A   2      22.882  -5.717  13.709  0.00  0.00    +0.149 C 
ENDROOT
BRANCH   1   4
ATOM      2  C   LEU A   1      24.888  -4.512  13.172  0.00  0.00    +0.238 C 
ATOM      3  O   LEU A   1      24.937  -4.082  14.320  0.00  0.00    -0.274 OA
ATOM      4  N   LEU A   2      23.923  -5.330  12.765  0.00  0.00    -0.297 N 
ATOM      5  H   LEU A   2      23.911  -5.688  11.789  0.00  0.00    +0.150 HD
BRANCH   2   6
ATOM      6  CA  LEU A   1      25.966  -4.137  12.144  0.00  0.00    +0.145 C 
BRANCH   6   7
ATOM      7  N   LEU A   1      26.336  -5.306  11.343  0.00  0.00    -0.238 NA
ATOM      8  H   LEU A   1      26.204  -5.291  10.312  0.00  0.00    +0.142 HD
ENDBRANCH   6   7
BRANCH   6   9
ATOM      9  CB  LEU A   1      25.466  -2.987  11.247  0.00  0.00    +0.026 C 
BRANCH   9  10
ATOM     10  CG  LEU A   1      24.972  -1.686  11.905  0.00  0.00    +0.002 C 
ATOM     11  CD2 LEU A   1      26.093  -0.912  12.581  0.00  0.00    +0.000 C 
ATOM     12  CD1 LEU A   1      24.340  -0.814  10.828  0.00  0.00    +0.000 C 
ENDBRANCH   9  10
ENDBRANCH   6   9
ENDBRANCH   2   6
ENDBRANCH   1   4
BRANCH   1  13
ATOM     13  C   LEU A   2      23.451  -6.677  14.754  0.00  0.00    +0.241 C 
ATOM     14  O   LEU A   2      22.983  -6.699  15.882  0.00  0.00    -0.273 OA
ATOM     15  N   GLN A   3      24.458  -7.463  14.379  0.00  0.00    -0.298 N 
ATOM     16  H   GLN A   3      24.811  -7.425  13.401  0.00  0.00    +0.150 HD
BRANCH  15  17
ATOM     17  CA  GLN A   3      25.068  -8.380  15.343  0.00  0.00    +0.137 C 
BRANCH  17  18
ATOM     18  C   GLN A   3      25.801  -7.508  16.358  0.00  0.00    +0.227 C 
ATOM     19  O   GLN A   3      25.729  -7.730  17.565  0.00  0.00    -0.286 OA
ENDBRANCH  17  18
BRANCH  17  20
ATOM     20  CB  GLN A   3      26.080  -9.313  14.663  0.00  0.00    +0.037 C 
BRANCH  20  21
ATOM     21  CG  GLN A   3      25.474 -10.499  13.931  0.00  0.00    +0.087 C 
BRANCH  21  22
ATOM     22  CD  GLN A   3      26.535 -11.420  13.342  0.00  0.00    +0.219 C 
ATOM     23  OE1 GLN A   3      27.418 -11.908  14.053  0.00  0.00    -0.275 OA
ATOM     24  NE2 GLN A   3      26.454 -11.660  12.039  0.00  0.00    -0.329 N 
ATOM     25 HE21 GLN A   3      27.151 -12.280  11.580  0.00  0.00    +0.145 HD
ATOM     26 HE22 GLN A   3      25.693 -11.228  11.477  0.00  0.00    +0.145 HD
ENDBRANCH  21  22
ENDBRANCH  20  21
ENDBRANCH  17  20
ENDBRANCH  15  17
ENDBRANCH   1  13
BRANCH   1  27
ATOM     27  CB  LEU A   2      21.677  -6.333  12.985  0.00  0.00    +0.029 C 
BRANCH  27  28
ATOM     28  CG  LEU A   2      20.906  -5.437  12.005  0.00  0.00    +0.002 C 
ATOM     29  CD2 LEU A   2      20.596  -4.075  12.627  0.00  0.00    +0.000 C 
ATOM     30  CD1 LEU A   2      19.607  -6.130  11.618  0.00  0.00    +0.000 C 
ENDBRANCH  27  28
ENDBRANCH   1  27
TORSDOF 13
REMARK  Name = ../refined-set-2016/1fm9/1fm9_pocket.pdb
REMARK  266 active torsions:
REMARK  status: ('A' for Active; 'I' for Inactive)
REMARK    1  A    between atoms: _1  and  _3
REMARK    2  A    between atoms: _3  and  _4
REMARK    3  A    between atoms: _3  and  _6
REMARK    4  A    between atoms: _6  and  _7
REMARK    5  A    between atoms: _10  and  _12
REMARK    6  A    between atoms: _12  and  _13
REMARK    7  A    between atoms: _12  and  _15
REMARK    8  A    between atoms: _15  and  _16
REMARK    9  A    between atoms: _19  and  _21
REMARK   10  A    between atoms: _21  and  _22
REMARK   11  A    between atoms: _24  and  _26
REMARK   12  A    between atoms: _26  and  _27
REMARK   13  A    between atoms: _26  and  _29
REMARK   14  A    between atoms: _29  and  _30
REMARK   15  A    between atoms: _30  and  _31
REMARK   16  A    between atoms: _34  and  _36
REMARK   17  A    between atoms: _36  and  _37
REMARK   18  A    between atoms: _36  and  _39
REMARK   19  A    between atoms: _39  and  _40
REMARK   20  A    between atoms: _44  and  _45
REMARK   21  A    between atoms: _50  and  _52
REMARK   22  A    between atoms: _52  and  _53
REMARK   23  A    between atoms: _52  and  _55
REMARK   24  A    between atoms: _55  and  _56
REMARK   25  A    between atoms: _59  and  _61
REMARK   26  A    between atoms: _61  and  _62
REMARK   27  A    between atoms: _61  and  _64
REMARK   28  A    between atoms: _67  and  _69
REMARK   29  A    between atoms: _69  and  _70
REMARK   30  A    between atoms: _73  and  _75
REMARK   31  A    between atoms: _75  and  _76
REMARK   32  A    between atoms: _75  and  _78
REMARK   33  A    between atoms: _78  and  _79
REMARK   34  A    between atoms: _82  and  _84
REMARK   35  A    between atoms: _84  and  _85
REMARK   36  A    between atoms: _84  and  _87
REMARK   37  A    between atoms: _87  and  _88
REMARK   38  A    between atoms: _88  and  _89
REMARK   39  A    between atoms: _89  and  _90
REMARK   40  A    between atoms: _99  and  _101
REMARK   41  A    between atoms: _101  and  _102
REMARK   42  A    between atoms: _101  and  _104
REMARK   43  A    between atoms: _104  and  _105
REMARK   44  A    between atoms: _108  and  _110
REMARK   45  A    between atoms: _110  and  _111
REMARK   46  A    between atoms: _110  and  _113
REMARK   47  A    between atoms: _113  and  _114
REMARK   48  A    between atoms: _120  and  _122
REMARK   49  A    between atoms: _122  and  _123
REMARK   50  A    between atoms: _122  and  _125
REMARK   51  A    between atoms: _125  and  _126
REMARK   52  A    between atoms: _126  and  _127
REMARK   53  A    between atoms: _132  and  _134
REMARK   54  A    between atoms: _134  and  _135
REMARK   55  A    between atoms: _137  and  _139
REMARK   56  A    between atoms: _139  and  _140
REMARK   57  A    between atoms: _139  and  _142
REMARK   58  A    between atoms: _144  and  _146
REMARK   59  A    between atoms: _146  and  _147
REMARK   60  A    between atoms: _146  and  _149
REMARK   61  A    between atoms: _149  and  _150
REMARK   62  A    between atoms: _150  and  _151
REMARK   63  A    between atoms: _156  and  _158
REMARK   64  A    between atoms: _158  and  _159
REMARK   65  A    between atoms: _158  and  _161
REMARK   66  A    between atoms: _161  and  _162
REMARK   67  A    between atoms: _168  and  _170
REMARK   68  A    between atoms: _170  and  _171
REMARK   69  A    between atoms: _170  and  _173
REMARK   70  A    between atoms: _173  and  _174
REMARK   71  A    between atoms: _174  and  _175
REMARK   72  A    between atoms: _175  and  _176
REMARK   73  A    between atoms: _185  and  _187
REMARK   74  A    between atoms: _187  and  _188
REMARK   75  A    between atoms: _187  and  _190
REMARK   76  A    between atoms: _190  and  _191
REMARK   77  A    between atoms: _193  and  _195
REMARK   78  A    between atoms: _195  and  _196
REMARK   79  A    between atoms: _195  and  _198
REMARK   80  A    between atoms: _201  and  _203
REMARK   81  A    between atoms: _203  and  _204
REMARK   82  A    between atoms: _203  and  _206
REMARK   83  A    between atoms: _206  and  _207
REMARK   84  A    between atoms: _207  and  _208
REMARK   85  A    between atoms: _211  and  _213
REMARK   86  A    between atoms: _213  and  _214
REMARK   87  A    between atoms: _217  and  _219
REMARK   88  A    between atoms: _219  and  _220
REMARK   89  A    between atoms: _219  and  _222
REMARK   90  A    between atoms: _225  and  _227
REMARK   91  A    between atoms: _227  and  _228
REMARK   92  A    between atoms: _227  and  _230
REMARK   93  A    between atoms: _233  and  _235
REMARK   94  A    between atoms: _235  and  _236
REMARK   95  A    between atoms: _235  and  _238
REMARK   96  A    between atoms: _238  and  _239
REMARK   97  A    between atoms: _244  and  _246
REMARK   98  A    between atoms: _246  and  _247
REMARK   99  A    between atoms: _246  and  _249
REMARK  100  A    between atoms: _249  and  _250
REMARK  101  A    between atoms: _253  and  _255
REMARK  102  A    between atoms: _255  and  _256
REMARK  103  A    between atoms: _255  and  _258
REMARK  104  A    between atoms: _258  and  _259
REMARK  105  A    between atoms: _264  and  _265
REMARK  106  A    between atoms: _267  and  _269
REMARK  107  A    between atoms: _269  and  _270
REMARK  108  A    between atoms: _269  and  _272
REMARK  109  A    between atoms: _272  and  _273
REMARK  110  A    between atoms: _276  and  _278
REMARK  111  A    between atoms: _278  and  _279
REMARK  112  A    between atoms: _278  and  _281
REMARK  113  A    between atoms: _281  and  _282
REMARK  114  A    between atoms: _285  and  _287
REMARK  115  A    between atoms: _287  and  _288
REMARK  116  A    between atoms: _287  and  _290
REMARK  117  A    between atoms: _290  and  _291
REMARK  118  A    between atoms: _291  and  _292
REMARK  119  A    between atoms: _294  and  _296
REMARK  120  A    between atoms: _296  and  _297
REMARK  121  A    between atoms: _296  and  _299
REMARK  122  A    between atoms: _302  and  _304
REMARK  123  A    between atoms: _304  and  _305
REMARK  124  A    between atoms: _304  and  _307
REMARK  125  A    between atoms: _307  and  _308
REMARK  126  A    between atoms: _311  and  _313
REMARK  127  A    between atoms: _313  and  _314
REMARK  128  A    between atoms: _313  and  _316
REMARK  129  A    between atoms: _316  and  _317
REMARK  130  A    between atoms: _320  and  _322
REMARK  131  A    between atoms: _322  and  _323
REMARK  132  A    between atoms: _322  and  _325
REMARK  133  A    between atoms: _325  and  _326
REMARK  134  A    between atoms: _328  and  _330
REMARK  135  A    between atoms: _330  and  _331
REMARK  136  A    between atoms: _330  and  _333
REMARK  137  A    between atoms: _333  and  _334
REMARK  138  A    between atoms: _334  and  _335
REMARK  139  A    between atoms: _338  and  _340
REMARK  140  A    between atoms: _340  and  _341
REMARK  141  A    between atoms: _343  and  _345
REMARK  142  A    between atoms: _345  and  _346
REMARK  143  A    between atoms: _348  and  _350
REMARK  144  A    between atoms: _350  and  _351
REMARK  145  A    between atoms: _350  and  _353
REMARK  146  A    between atoms: _353  and  _354
REMARK  147  A    between atoms: _354  and  _355
REMARK  148  A    between atoms: _357  and  _359
REMARK  149  A    between atoms: _359  and  _360
REMARK  150  A    between atoms: _359  and  _362
REMARK  151  A    between atoms: _362  and  _363
REMARK  152  A    between atoms: _366  and  _368
REMARK  153  A    between atoms: _368  and  _369
REMARK  154  A    between atoms: _368  and  _371
REMARK  155  A    between atoms: _371  and  _372
REMARK  156  A    between atoms: _378  and  _380
REMARK  157  A    between atoms: _380  and  _381
REMARK  158  A    between atoms: _380  and  _383
REMARK  159  A    between atoms: _383  and  _384
REMARK  160  A    between atoms: _387  and  _389
REMARK  161  A    between atoms: _389  and  _390
REMARK  162  A    between atoms: _389  and  _392
REMARK  163  A    between atoms: _392  and  _393
REMARK  164  A    between atoms: _396  and  _398
REMARK  165  A    between atoms: _398  and  _399
REMARK  166  A    between atoms: _398  and  _401
REMARK  167  A    between atoms: _401  and  _402
REMARK  168  A    between atoms: _402  and  _403
REMARK  169  A    between atoms: _403  and  _404
REMARK  170  A    between atoms: _414  and  _415
REMARK  171  A    between atoms: _420  and  _422
REMARK  172  A    between atoms: _422  and  _423
REMARK  173  A    between atoms: _422  and  _425
REMARK  174  A    between atoms: _425  and  _426
REMARK  175  A    between atoms: _432  and  _434
REMARK  176  A    between atoms: _434  and  _435
REMARK  177  A    between atoms: _437  and  _439
REMARK  178  A    between atoms: _439  and  _440
REMARK  179  A    between atoms: _439  and  _442
REMARK  180  A    between atoms: _442  and  _443
REMARK  181  A    between atoms: _446  and  _448
REMARK  182  A    between atoms: _448  and  _449
REMARK  183  A    between atoms: _448  and  _451
REMARK  184  A    between atoms: _451  and  _452
REMARK  185  A    between atoms: _458  and  _460
REMARK  186  A    between atoms: _460  and  _461
REMARK  187  A    between atoms: _460  and  _463
REMARK  188  A    between atoms: _463  and  _464
REMARK  189  A    between atoms: _464  and  _465
REMARK  190  A    between atoms: _467  and  _469
REMARK  191  A    between atoms: _469  and  _470
REMARK  192  A    between atoms: _469  and  _472
REMARK  193  A    between atoms: _472  and  _473
REMARK  194  A    between atoms: _473  and  _474
REMARK  195  A    between atoms: _477  and  _479
REMARK  196  A    between atoms: _479  and  _480
REMARK  197  A    between atoms: _479  and  _482
REMARK  198  A    between atoms: _482  and  _483
REMARK  199  A    between atoms: _483  and  _484
REMARK  200  A    between atoms: _484  and  _485
REMARK  201  A    between atoms: _485  and  _486
REMARK  202  A    between atoms: _490  and  _492
REMARK  203  A    between atoms: _492  and  _493
REMARK  204  A    between atoms: _492  and  _495
REMARK  205  A    between atoms: _495  and  _496
REMARK  206  A    between atoms: _502  and  _504
REMARK  207  A    between atoms: _504  and  _505
REMARK  208  A    between atoms: _504  and  _507
REMARK  209  A    between atoms: _510  and  _512
REMARK  210  A    between atoms: _512  and  _513
REMARK  211  A    between atoms: _512  and  _515
REMARK  212  A    between atoms: _515  and  _516
REMARK  213  A    between atoms: _521  and  _523
REMARK  214  A    between atoms: _523  and  _524
REMARK  215  A    between atoms: _523  and  _526
REMARK  216  A    between atoms: _529  and  _531
REMARK  217  A    between atoms: _531  and  _532
REMARK  218  A    between atoms: _531  and  _534
REMARK  219  A    between atoms: _534  and  _535
REMARK  220  A    between atoms: _538  and  _540
REMARK  221  A    between atoms: _540  and  _541
REMARK  222  A    between atoms: _540  and  _543
REMARK  223  A    between atoms: _543  and  _544
REMARK  224  A    between atoms: _547  and  _549
REMARK  225  A    between atoms: _549  and  _550
REMARK  226  A    between atoms: _549  and  _552
REMARK  227  A    between atoms: _552  and  _553
REMARK  228  A    between atoms: _556  and  _558
REMARK  229  A    between atoms: _558  and  _559
REMARK  230  A    between atoms: _558  and  _561
REMARK  231  A    between atoms: _561  and  _562
REMARK  232  A    between atoms: _562  and  _563
REMARK  233  A    between atoms: _565  and  _567
REMARK  234  A    between atoms: _567  and  _568
REMARK  235  A    between atoms: _567  and  _570
REMARK  236  A    between atoms: _570  and  _571
REMARK  237  A    between atoms: _573  and  _575
REMARK  238  A    between atoms: _575  and  _576
REMARK  239  A    between atoms: _575  and  _578
REMARK  240  A    between atoms: _578  and  _579
REMARK  241  A    between atoms: _582  and  _584
REMARK  242  A    between atoms: _584  and  _585
REMARK  243  A    between atoms: _584  and  _587
REMARK  244  A    between atoms: _587  and  _588
REMARK  245  A    between atoms: _593  and  _595
REMARK  246  A    between atoms: _595  and  _596
REMARK  247  A    between atoms: _595  and  _598
REMARK  248  A    between atoms: _598  and  _599
REMARK  249  A    between atoms: _602  and  _604
REMARK  250  A    between atoms: _604  and  _605
REMARK  251  A    between atoms: _604  and  _607
REMARK  252  A    between atoms: _607  and  _608
REMARK  253  A    between atoms: _611  and  _613
REMARK  254  A    between atoms: _613  and  _614
REMARK  255  A    between atoms: _613  and  _616
REMARK  256  A    between atoms: _616  and  _617
REMARK  257  A    between atoms: _617  and  _618
REMARK  258  A    between atoms: _623  and  _625
REMARK  259  A    between atoms: _625  and  _626
REMARK  260  A    between atoms: _625  and  _628
REMARK  261  A    between atoms: _628  and  _629
REMARK  262  A    between atoms: _632  and  _634
REMARK  263  A    between atoms: _634  and  _635
REMARK  264  A    between atoms: _634  and  _637
REMARK  265  A    between atoms: _637  and  _638
REMARK  266  A    between atoms: _643  and  _644
REMARK                            x       y       z     vdW  Elec       q    Type
REMARK                         _______ _______ _______ _____ _____    ______ ____
ROOT
ATOM      1  CA  TYR A   2      22.617  -6.874  19.673  0.00  0.00    +0.141 C 
ENDROOT
BRANCH   1   4
ATOM      2  C   ILE A   1      23.645  -4.739  19.181  0.00  0.00    +0.238 C 
ATOM      3  O   ILE A   1      23.612  -4.414  20.368  0.00  0.00    -0.274 OA
ATOM      4  N   TYR A   2      23.203  -5.912  18.742  0.00  0.00    -0.298 N 
ATOM      5  H   TYR A   2      23.274  -6.147  17.731  0.00  0.00    +0.150 HD
BRANCH   2   6
ATOM      6  CA  ILE A   1      24.234  -3.788  18.139  0.00  0.00    +0.145 C 
BRANCH   6   7
ATOM      7  N   ILE A   1      25.163  -4.447  17.235  0.00  0.00    -0.238 NA
ATOM      8  H   ILE A   1      24.923  -4.554  16.229  0.00  0.00    +0.142 HD
ENDBRANCH   6   7
BRANCH   6   9
ATOM      9  CB  ILE A   1      23.127  -3.083  17.322  0.00  0.00    +0.025 C 
ATOM     10  CG2 ILE A   1      22.012  -2.582  18.246  0.00  0.00    +0.002 C 
BRANCH   9  11
ATOM     11  CG1 ILE A   1      23.758  -1.934  16.531  0.00  0.00    +0.002 C 
ATOM     12  CD1 ILE A   1      22.900  -1.416  15.407  0.00  0.00    +0.000 C 
ENDBRANCH   9  11
ENDBRANCH   6   9
ENDBRANCH   2   6
ENDBRANCH   1   4
BRANCH   1  13
ATOM     13  C   TYR A   2      23.576  -7.554  20.637  0.00  0.00    +0.227 C 
ATOM     14  O   TYR A   2      23.140  -8.088  21.656  0.00  0.00    -0.286 OA
ENDBRANCH   1  13
BRANCH   1  15
ATOM     15  CB  TYR A   2      21.854  -7.956  18.915  0.00  0.00    +0.054 C 
BRANCH  15  16
ATOM     16  CG  TYR A   2      20.531  -7.471  18.417  0.00  0.00    -0.020 A 
ATOM     17  CD2 TYR A   2      19.637  -6.833  19.276  0.00  0.00    -0.001 A 
ATOM     18  CE2 TYR A   2      18.418  -6.364  18.821  0.00  0.00    +0.036 A 
ATOM     19  CZ  TYR A   2      18.087  -6.530  17.488  0.00  0.00    +0.134 A 
ATOM     20  CE1 TYR A   2      18.954  -7.159  16.614  0.00  0.00    +0.036 A 
ATOM     21  CD1 TYR A   2      20.173  -7.630  17.081  0.00  0.00    -0.001 A 
BRANCH  19  22
ATOM     22  OH  TYR A   2      16.898  -6.057  17.015  0.00  0.00    -0.506 OA
ATOM     23  HH  TYR A   2      17.069  -5.385  16.308  0.00  0.00    +0.292 HD
ENDBRANCH  19  22
ENDBRANCH  15  16
ENDBRANCH   1  15
TORSDOF 9
REMARK  Name = ../refined-set-2016/1fm9/1fm9_pocket.pdb
REMARK  266 active torsions:
REMARK  status: ('A' for Active; 'I' for Inactive)
REMARK    1  A    between atoms: _1  and  _3
REMARK    2  A    between atoms: _3  and  _4
REMARK    3  A    between atoms: _3  and  _6
REMARK    4  A    between atoms: _6  and  _7
REMARK    5  A    between atoms: _10  and  _12
REMARK    6  A    between atoms: _12  and  _13
REMARK    7  A    between atoms: _12  and  _15
REMARK    8  A    between atoms: _15  and  _16
REMARK    9  A    between atoms: _19  and  _21
REMARK   10  A    between atoms: _21  and  _22
REMARK   11  A    between atoms: _24  and  _26
REMARK   12  A    between atoms: _26  and  _27
REMARK   13  A    between atoms: _26  and  _29
REMARK   14  A    between atoms: _29  and  _30
REMARK   15  A    between atoms: _30  and  _31
REMARK   16  A    between atoms: _34  and  _36
REMARK   17  A    between atoms: _36  and  _37
REMARK   18  A    between atoms: _36  and  _39
REMARK   19  A    between atoms: _39  and  _40
REMARK   20  A    between atoms: _44  and  _45
REMARK   21  A    between atoms: _50  and  _52
REMARK   22  A    between atoms: _52  and  _53
REMARK   23  A    between atoms: _52  and  _55
REMARK   24  A    between atoms: _55  and  _56
REMARK   25  A    between atoms: _59  and  _61
REMARK   26  A    between atoms: _61  and  _62
REMARK   27  A    between atoms: _61  and  _64
REMARK   28  A    between atoms: _67  and  _69
REMARK   29  A    between atoms: _69  and  _70
REMARK   30  A    between atoms: _73  and  _75
REMARK   31  A    between atoms: _75  and  _76
REMARK   32  A    between atoms: _75  and  _78
REMARK   33  A    between atoms: _78  and  _79
REMARK   34  A    between atoms: _82  and  _84
REMARK   35  A    between atoms: _84  and  _85
REMARK   36  A    between atoms: _84  and  _87
REMARK   37  A    between atoms: _87  and  _88
REMARK   38  A    between atoms: _88  and  _89
REMARK   39  A    between atoms: _89  and  _90
REMARK   40  A    between atoms: _99  and  _101
REMARK   41  A    between atoms: _101  and  _102
REMARK   42  A    between atoms: _101  and  _104
REMARK   43  A    between atoms: _104  and  _105
REMARK   44  A    between atoms: _108  and  _110
REMARK   45  A    between atoms: _110  and  _111
REMARK   46  A    between atoms: _110  and  _113
REMARK   47  A    between atoms: _113  and  _114
REMARK   48  A    between atoms: _120  and  _122
REMARK   49  A    between atoms: _122  and  _123
REMARK   50  A    between atoms: _122  and  _125
REMARK   51  A    between atoms: _125  and  _126
REMARK   52  A    between atoms: _126  and  _127
REMARK   53  A    between atoms: _132  and  _134
REMARK   54  A    between atoms: _134  and  _135
REMARK   55  A    between atoms: _137  and  _139
REMARK   56  A    between atoms: _139  and  _140
REMARK   57  A    between atoms: _139  and  _142
REMARK   58  A    between atoms: _144  and  _146
REMARK   59  A    between atoms: _146  and  _147
REMARK   60  A    between atoms: _146  and  _149
REMARK   61  A    between atoms: _149  and  _150
REMARK   62  A    between atoms: _150  and  _151
REMARK   63  A    between atoms: _156  and  _158
REMARK   64  A    between atoms: _158  and  _159
REMARK   65  A    between atoms: _158  and  _161
REMARK   66  A    between atoms: _161  and  _162
REMARK   67  A    between atoms: _168  and  _170
REMARK   68  A    between atoms: _170  and  _171
REMARK   69  A    between atoms: _170  and  _173
REMARK   70  A    between atoms: _173  and  _174
REMARK   71  A    between atoms: _174  and  _175
REMARK   72  A    between atoms: _175  and  _176
REMARK   73  A    between atoms: _185  and  _187
REMARK   74  A    between atoms: _187  and  _188
REMARK   75  A    between atoms: _187  and  _190
REMARK   76  A    between atoms: _190  and  _191
REMARK   77  A    between atoms: _193  and  _195
REMARK   78  A    between atoms: _195  and  _196
REMARK   79  A    between atoms: _195  and  _198
REMARK   80  A    between atoms: _201  and  _203
REMARK   81  A    between atoms: _203  and  _204
REMARK   82  A    between atoms: _203  and  _206
REMARK   83  A    between atoms: _206  and  _207
REMARK   84  A    between atoms: _207  and  _208
REMARK   85  A    between atoms: _211  and  _213
REMARK   86  A    between atoms: _213  and  _214
REMARK   87  A    between atoms: _217  and  _219
REMARK   88  A    between atoms: _219  and  _220
REMARK   89  A    between atoms: _219  and  _222
REMARK   90  A    between atoms: _225  and  _227
REMARK   91  A    between atoms: _227  and  _228
REMARK   92  A    between atoms: _227  and  _230
REMARK   93  A    between atoms: _233  and  _235
REMARK   94  A    between atoms: _235  and  _236
REMARK   95  A    between atoms: _235  and  _238
REMARK   96  A    between atoms: _238  and  _239
REMARK   97  A    between atoms: _244  and  _246
REMARK   98  A    between atoms: _246  and  _247
REMARK   99  A    between atoms: _246  and  _249
REMARK  100  A    between atoms: _249  and  _250
REMARK  101  A    between atoms: _253  and  _255
REMARK  102  A    between atoms: _255  and  _256
REMARK  103  A    between atoms: _255  and  _258
REMARK  104  A    between atoms: _258  and  _259
REMARK  105  A    between atoms: _264  and  _265
REMARK  106  A    between atoms: _267  and  _269
REMARK  107  A    between atoms: _269  and  _270
REMARK  108  A    between atoms: _269  and  _272
REMARK  109  A    between atoms: _272  and  _273
REMARK  110  A    between atoms: _276  and  _278
REMARK  111  A    between atoms: _278  and  _279
REMARK  112  A    between atoms: _278  and  _281
REMARK  113  A    between atoms: _281  and  _282
REMARK  114  A    between atoms: _285  and  _287
REMARK  115  A    between atoms: _287  and  _288
REMARK  116  A    between atoms: _287  and  _290
REMARK  117  A    between atoms: _290  and  _291
REMARK  118  A    between atoms: _291  and  _292
REMARK  119  A    between atoms: _294  and  _296
REMARK  120  A    between atoms: _296  and  _297
REMARK  121  A    between atoms: _296  and  _299
REMARK  122  A    between atoms: _302  and  _304
REMARK  123  A    between atoms: _304  and  _305
REMARK  124  A    between atoms: _304  and  _307
REMARK  125  A    between atoms: _307  and  _308
REMARK  126  A    between atoms: _311  and  _313
REMARK  127  A    between atoms: _313  and  _314
REMARK  128  A    between atoms: _313  and  _316
REMARK  129  A    between atoms: _316  and  _317
REMARK  130  A    between atoms: _320  and  _322
REMARK  131  A    between atoms: _322  and  _323
REMARK  132  A    between atoms: _322  and  _325
REMARK  133  A    between atoms: _325  and  _326
REMARK  134  A    between atoms: _328  and  _330
REMARK  135  A    between atoms: _330  and  _331
REMARK  136  A    between atoms: _330  and  _333
REMARK  137  A    between atoms: _333  and  _334
REMARK  138  A    between atoms: _334  and  _335
REMARK  139  A    between atoms: _338  and  _340
REMARK  140  A    between atoms: _340  and  _341
REMARK  141  A    between atoms: _343  and  _345
REMARK  142  A    between atoms: _345  and  _346
REMARK  143  A    between atoms: _348  and  _350
REMARK  144  A    between atoms: _350  and  _351
REMARK  145  A    between atoms: _350  and  _353
REMARK  146  A    between atoms: _353  and  _354
REMARK  147  A    between atoms: _354  and  _355
REMARK  148  A    between atoms: _357  and  _359
REMARK  149  A    between atoms: _359  and  _360
REMARK  150  A    between atoms: _359  and  _362
REMARK  151  A    between atoms: _362  and  _363
REMARK  152  A    between atoms: _366  and  _368
REMARK  153  A    between atoms: _368  and  _369
REMARK  154  A    between atoms: _368  and  _371
REMARK  155  A    between atoms: _371  and  _372
REMARK  156  A    between atoms: _378  and  _380
REMARK  157  A    between atoms: _380  and  _381
REMARK  158  A    between atoms: _380  and  _383
REMARK  159  A    between atoms: _383  and  _384
REMARK  160  A    between atoms: _387  and  _389
REMARK  161  A    between atoms: _389  and  _390
REMARK  162  A    between atoms: _389  and  _392
REMARK  163  A    between atoms: _392  and  _393
REMARK  164  A    between atoms: _396  and  _398
REMARK  165  A    between atoms: _398  and  _399
REMARK  166  A    between atoms: _398  and  _401
REMARK  167  A    between atoms: _401  and  _402
REMARK  168  A    between atoms: _402  and  _403
REMARK  169  A    between atoms: _403  and  _404
REMARK  170  A    between atoms: _414  and  _415
REMARK  171  A    between atoms: _420  and  _422
REMARK  172  A    between atoms: _422  and  _423
REMARK  173  A    between atoms: _422  and  _425
REMARK  174  A    between atoms: _425  and  _426
REMARK  175  A    between atoms: _432  and  _434
REMARK  176  A    between atoms: _434  and  _435
REMARK  177  A    between atoms: _437  and  _439
REMARK  178  A    between atoms: _439  and  _440
REMARK  179  A    between atoms: _439  and  _442
REMARK  180  A    between atoms: _442  and  _443
REMARK  181  A    between atoms: _446  and  _448
REMARK  182  A    between atoms: _448  and  _449
REMARK  183  A    between atoms: _448  and  _451
REMARK  184  A    between atoms: _451  and  _452
REMARK  185  A    between atoms: _458  and  _460
REMARK  186  A    between atoms: _460  and  _461
REMARK  187  A    between atoms: _460  and  _463
REMARK  188  A    between atoms: _463  and  _464
REMARK  189  A    between atoms: _464  and  _465
REMARK  190  A    between atoms: _467  and  _469
REMARK  191  A    between atoms: _469  and  _470
REMARK  192  A    between atoms: _469  and  _472
REMARK  193  A    between atoms: _472  and  _473
REMARK  194  A    between atoms: _473  and  _474
REMARK  195  A    between atoms: _477  and  _479
REMARK  196  A    between atoms: _479  and  _480
REMARK  197  A    between atoms: _479  and  _482
REMARK  198  A    between atoms: _482  and  _483
REMARK  199  A    between atoms: _483  and  _484
REMARK  200  A    between atoms: _484  and  _485
REMARK  201  A    between atoms: _485  and  _486
REMARK  202  A    between atoms: _490  and  _492
REMARK  203  A    between atoms: _492  and  _493
REMARK  204  A    between atoms: _492  and  _495
REMARK  205  A    between atoms: _495  and  _496
REMARK  206  A    between atoms: _502  and  _504
REMARK  207  A    between atoms: _504  and  _505
REMARK  208  A    between atoms: _504  and  _507
REMARK  209  A    between atoms: _510  and  _512
REMARK  210  A    between atoms: _512  and  _513
REMARK  211  A    between atoms: _512  and  _515
REMARK  212  A    between atoms: _515  and  _516
REMARK  213  A    between atoms: _521  and  _523
REMARK  214  A    between atoms: _523  and  _524
REMARK  215  A    between atoms: _523  and  _526
REMARK  216  A    between atoms: _529  and  _531
REMARK  217  A    between atoms: _531  and  _532
REMARK  218  A    between atoms: _531  and  _534
REMARK  219  A    between atoms: _534  and  _535
REMARK  220  A    between atoms: _538  and  _540
REMARK  221  A    between atoms: _540  and  _541
REMARK  222  A    between atoms: _540  and  _543
REMARK  223  A    between atoms: _543  and  _544
REMARK  224  A    between atoms: _547  and  _549
REMARK  225  A    between atoms: _549  and  _550
REMARK  226  A    between atoms: _549  and  _552
REMARK  227  A    between atoms: _552  and  _553
REMARK  228  A    between atoms: _556  and  _558
REMARK  229  A    between atoms: _558  and  _559
REMARK  230  A    between atoms: _558  and  _561
REMARK  231  A    between atoms: _561  and  _562
REMARK  232  A    between atoms: _562  and  _563
REMARK  233  A    between atoms: _565  and  _567
REMARK  234  A    between atoms: _567  and  _568
REMARK  235  A    between atoms: _567  and  _570
REMARK  236  A    between atoms: _570  and  _571
REMARK  237  A    between atoms: _573  and  _575
REMARK  238  A    between atoms: _575  and  _576
REMARK  239  A    between atoms: _575  and  _578
REMARK  240  A    between atoms: _578  and  _579
REMARK  241  A    between atoms: _582  and  _584
REMARK  242  A    between atoms: _584  and  _585
REMARK  243  A    between atoms: _584  and  _587
REMARK  244  A    between atoms: _587  and  _588
REMARK  245  A    between atoms: _593  and  _595
REMARK  246  A    between atoms: _595  and  _596
REMARK  247  A    between atoms: _595  and  _598
REMARK  248  A    between atoms: _598  and  _599
REMARK  249  A    between atoms: _602  and  _604
REMARK  250  A    between atoms: _604  and  _605
REMARK  251  A    between atoms: _604  and  _607
REMARK  252  A    between atoms: _607  and  _608
REMARK  253  A    between atoms: _611  and  _613
REMARK  254  A    between atoms: _613  and  _614
REMARK  255  A    between atoms: _613  and  _616
REMARK  256  A    between atoms: _616  and  _617
REMARK  257  A    between atoms: _617  and  _618
REMARK  258  A    between atoms: _623  and  _625
REMARK  259  A    between atoms: _625  and  _626
REMARK  260  A    between atoms: _625  and  _628
REMARK  261  A    between atoms: _628  and  _629
REMARK  262  A    between atoms: _632  and  _634
REMARK  263  A    between atoms: _634  and  _635
REMARK  264  A    between atoms: _634  and  _637
REMARK  265  A    between atoms: _637  and  _638
REMARK  266  A    between atoms: _643  and  _644
REMARK                            x       y       z     vdW  Elec       q    Type
REMARK                         _______ _______ _______ _____ _____    ______ ____
ROOT
ATOM      1  O   HOH     1      11.172   1.312   8.225  0.00  0.00    +0.000 OA
ENDROOT
TORSDOF 0
REMARK  Name = ../refined-set-2016/1fm9/1fm9_pocket.pdb
REMARK  266 active torsions:
REMARK  status: ('A' for Active; 'I' for Inactive)
REMARK    1  A    between atoms: _1  and  _3
REMARK    2  A    between atoms: _3  and  _4
REMARK    3  A    between atoms: _3  and  _6
REMARK    4  A    between atoms: _6  and  _7
REMARK    5  A    between atoms: _10  and  _12
REMARK    6  A    between atoms: _12  and  _13
REMARK    7  A    between atoms: _12  and  _15
REMARK    8  A    between atoms: _15  and  _16
REMARK    9  A    between atoms: _19  and  _21
REMARK   10  A    between atoms: _21  and  _22
REMARK   11  A    between atoms: _24  and  _26
REMARK   12  A    between atoms: _26  and  _27
REMARK   13  A    between atoms: _26  and  _29
REMARK   14  A    between atoms: _29  and  _30
REMARK   15  A    between atoms: _30  and  _31
REMARK   16  A    between atoms: _34  and  _36
REMARK   17  A    between atoms: _36  and  _37
REMARK   18  A    between atoms: _36  and  _39
REMARK   19  A    between atoms: _39  and  _40
REMARK   20  A    between atoms: _44  and  _45
REMARK   21  A    between atoms: _50  and  _52
REMARK   22  A    between atoms: _52  and  _53
REMARK   23  A    between atoms: _52  and  _55
REMARK   24  A    between atoms: _55  and  _56
REMARK   25  A    between atoms: _59  and  _61
REMARK   26  A    between atoms: _61  and  _62
REMARK   27  A    between atoms: _61  and  _64
REMARK   28  A    between atoms: _67  and  _69
REMARK   29  A    between atoms: _69  and  _70
REMARK   30  A    between atoms: _73  and  _75
REMARK   31  A    between atoms: _75  and  _76
REMARK   32  A    between atoms: _75  and  _78
REMARK   33  A    between atoms: _78  and  _79
REMARK   34  A    between atoms: _82  and  _84
REMARK   35  A    between atoms: _84  and  _85
REMARK   36  A    between atoms: _84  and  _87
REMARK   37  A    between atoms: _87  and  _88
REMARK   38  A    between atoms: _88  and  _89
REMARK   39  A    between atoms: _89  and  _90
REMARK   40  A    between atoms: _99  and  _101
REMARK   41  A    between atoms: _101  and  _102
REMARK   42  A    between atoms: _101  and  _104
REMARK   43  A    between atoms: _104  and  _105
REMARK   44  A    between atoms: _108  and  _110
REMARK   45  A    between atoms: _110  and  _111
REMARK   46  A    between atoms: _110  and  _113
REMARK   47  A    between atoms: _113  and  _114
REMARK   48  A    between atoms: _120  and  _122
REMARK   49  A    between atoms: _122  and  _123
REMARK   50  A    between atoms: _122  and  _125
REMARK   51  A    between atoms: _125  and  _126
REMARK   52  A    between atoms: _126  and  _127
REMARK   53  A    between atoms: _132  and  _134
REMARK   54  A    between atoms: _134  and  _135
REMARK   55  A    between atoms: _137  and  _139
REMARK   56  A    between atoms: _139  and  _140
REMARK   57  A    between atoms: _139  and  _142
REMARK   58  A    between atoms: _144  and  _146
REMARK   59  A    between atoms: _146  and  _147
REMARK   60  A    between atoms: _146  and  _149
REMARK   61  A    between atoms: _149  and  _150
REMARK   62  A    between atoms: _150  and  _151
REMARK   63  A    between atoms: _156  and  _158
REMARK   64  A    between atoms: _158  and  _159
REMARK   65  A    between atoms: _158  and  _161
REMARK   66  A    between atoms: _161  and  _162
REMARK   67  A    between atoms: _168  and  _170
REMARK   68  A    between atoms: _170  and  _171
REMARK   69  A    between atoms: _170  and  _173
REMARK   70  A    between atoms: _173  and  _174
REMARK   71  A    between atoms: _174  and  _175
REMARK   72  A    between atoms: _175  and  _176
REMARK   73  A    between atoms: _185  and  _187
REMARK   74  A    between atoms: _187  and  _188
REMARK   75  A    between atoms: _187  and  _190
REMARK   76  A    between atoms: _190  and  _191
REMARK   77  A    between atoms: _193  and  _195
REMARK   78  A    between atoms: _195  and  _196
REMARK   79  A    between atoms: _195  and  _198
REMARK   80  A    between atoms: _201  and  _203
REMARK   81  A    between atoms: _203  and  _204
REMARK   82  A    between atoms: _203  and  _206
REMARK   83  A    between atoms: _206  and  _207
REMARK   84  A    between atoms: _207  and  _208
REMARK   85  A    between atoms: _211  and  _213
REMARK   86  A    between atoms: _213  and  _214
REMARK   87  A    between atoms: _217  and  _219
REMARK   88  A    between atoms: _219  and  _220
REMARK   89  A    between atoms: _219  and  _222
REMARK   90  A    between atoms: _225  and  _227
REMARK   91  A    between atoms: _227  and  _228
REMARK   92  A    between atoms: _227  and  _230
REMARK   93  A    between atoms: _233  and  _235
REMARK   94  A    between atoms: _235  and  _236
REMARK   95  A    between atoms: _235  and  _238
REMARK   96  A    between atoms: _238  and  _239
REMARK   97  A    between atoms: _244  and  _246
REMARK   98  A    between atoms: _246  and  _247
REMARK   99  A    between atoms: _246  and  _249
REMARK  100  A    between atoms: _249  and  _250
REMARK  101  A    between atoms: _253  and  _255
REMARK  102  A    between atoms: _255  and  _256
REMARK  103  A    between atoms: _255  and  _258
REMARK  104  A    between atoms: _258  and  _259
REMARK  105  A    between atoms: _264  and  _265
REMARK  106  A    between atoms: _267  and  _269
REMARK  107  A    between atoms: _269  and  _270
REMARK  108  A    between atoms: _269  and  _272
REMARK  109  A    between atoms: _272  and  _273
REMARK  110  A    between atoms: _276  and  _278
REMARK  111  A    between atoms: _278  and  _279
REMARK  112  A    between atoms: _278  and  _281
REMARK  113  A    between atoms: _281  and  _282
REMARK  114  A    between atoms: _285  and  _287
REMARK  115  A    between atoms: _287  and  _288
REMARK  116  A    between atoms: _287  and  _290
REMARK  117  A    between atoms: _290  and  _291
REMARK  118  A    between atoms: _291  and  _292
REMARK  119  A    between atoms: _294  and  _296
REMARK  120  A    between atoms: _296  and  _297
REMARK  121  A    between atoms: _296  and  _299
REMARK  122  A    between atoms: _302  and  _304
REMARK  123  A    between atoms: _304  and  _305
REMARK  124  A    between atoms: _304  and  _307
REMARK  125  A    between atoms: _307  and  _308
REMARK  126  A    between atoms: _311  and  _313
REMARK  127  A    between atoms: _313  and  _314
REMARK  128  A    between atoms: _313  and  _316
REMARK  129  A    between atoms: _316  and  _317
REMARK  130  A    between atoms: _320  and  _322
REMARK  131  A    between atoms: _322  and  _323
REMARK  132  A    between atoms: _322  and  _325
REMARK  133  A    between atoms: _325  and  _326
REMARK  134  A    between atoms: _328  and  _330
REMARK  135  A    between atoms: _330  and  _331
REMARK  136  A    between atoms: _330  and  _333
REMARK  137  A    between atoms: _333  and  _334
REMARK  138  A    between atoms: _334  and  _335
REMARK  139  A    between atoms: _338  and  _340
REMARK  140  A    between atoms: _340  and  _341
REMARK  141  A    between atoms: _343  and  _345
REMARK  142  A    between atoms: _345  and  _346
REMARK  143  A    between atoms: _348  and  _350
REMARK  144  A    between atoms: _350  and  _351
REMARK  145  A    between atoms: _350  and  _353
REMARK  146  A    between atoms: _353  and  _354
REMARK  147  A    between atoms: _354  and  _355
REMARK  148  A    between atoms: _357  and  _359
REMARK  149  A    between atoms: _359  and  _360
REMARK  150  A    between atoms: _359  and  _362
REMARK  151  A    between atoms: _362  and  _363
REMARK  152  A    between atoms: _366  and  _368
REMARK  153  A    between atoms: _368  and  _369
REMARK  154  A    between atoms: _368  and  _371
REMARK  155  A    between atoms: _371  and  _372
REMARK  156  A    between atoms: _378  and  _380
REMARK  157  A    between atoms: _380  and  _381
REMARK  158  A    between atoms: _380  and  _383
REMARK  159  A    between atoms: _383  and  _384
REMARK  160  A    between atoms: _387  and  _389
REMARK  161  A    between atoms: _389  and  _390
REMARK  162  A    between atoms: _389  and  _392
REMARK  163  A    between atoms: _392  and  _393
REMARK  164  A    between atoms: _396  and  _398
REMARK  165  A    between atoms: _398  and  _399
REMARK  166  A    between atoms: _398  and  _401
REMARK  167  A    between atoms: _401  and  _402
REMARK  168  A    between atoms: _402  and  _403
REMARK  169  A    between atoms: _403  and  _404
REMARK  170  A    between atoms: _414  and  _415
REMARK  171  A    between atoms: _420  and  _422
REMARK  172  A    between atoms: _422  and  _423
REMARK  173  A    between atoms: _422  and  _425
REMARK  174  A    between atoms: _425  and  _426
REMARK  175  A    between atoms: _432  and  _434
REMARK  176  A    between atoms: _434  and  _435
REMARK  177  A    between atoms: _437  and  _439
REMARK  178  A    between atoms: _439  and  _440
REMARK  179  A    between atoms: _439  and  _442
REMARK  180  A    between atoms: _442  and  _443
REMARK  181  A    between atoms: _446  and  _448
REMARK  182  A    between atoms: _448  and  _449
REMARK  183  A    between atoms: _448  and  _451
REMARK  184  A    between atoms: _451  and  _452
REMARK  185  A    between atoms: _458  and  _460
REMARK  186  A    between atoms: _460  and  _461
REMARK  187  A    between atoms: _460  and  _463
REMARK  188  A    between atoms: _463  and  _464
REMARK  189  A    between atoms: _464  and  _465
REMARK  190  A    between atoms: _467  and  _469
REMARK  191  A    between atoms: _469  and  _470
REMARK  192  A    between atoms: _469  and  _472
REMARK  193  A    between atoms: _472  and  _473
REMARK  194  A    between atoms: _473  and  _474
REMARK  195  A    between atoms: _477  and  _479
REMARK  196  A    between atoms: _479  and  _480
REMARK  197  A    between atoms: _479  and  _482
REMARK  198  A    between atoms: _482  and  _483
REMARK  199  A    between atoms: _483  and  _484
REMARK  200  A    between atoms: _484  and  _485
REMARK  201  A    between atoms: _485  and  _486
REMARK  202  A    between atoms: _490  and  _492
REMARK  203  A    between atoms: _492  and  _493
REMARK  204  A    between atoms: _492  and  _495
REMARK  205  A    between atoms: _495  and  _496
REMARK  206  A    between atoms: _502  and  _504
REMARK  207  A    between atoms: _504  and  _505
REMARK  208  A    between atoms: _504  and  _507
REMARK  209  A    between atoms: _510  and  _512
REMARK  210  A    between atoms: _512  and  _513
REMARK  211  A    between atoms: _512  and  _515
REMARK  212  A    between atoms: _515  and  _516
REMARK  213  A    between atoms: _521  and  _523
REMARK  214  A    between atoms: _523  and  _524
REMARK  215  A    between atoms: _523  and  _526
REMARK  216  A    between atoms: _529  and  _531
REMARK  217  A    between atoms: _531  and  _532
REMARK  218  A    between atoms: _531  and  _534
REMARK  219  A    between atoms: _534  and  _535
REMARK  220  A    between atoms: _538  and  _540
REMARK  221  A    between atoms: _540  and  _541
REMARK  222  A    between atoms: _540  and  _543
REMARK  223  A    between atoms: _543  and  _544
REMARK  224  A    between atoms: _547  and  _549
REMARK  225  A    between atoms: _549  and  _550
REMARK  226  A    between atoms: _549  and  _552
REMARK  227  A    between atoms: _552  and  _553
REMARK  228  A    between atoms: _556  and  _558
REMARK  229  A    between atoms: _558  and  _559
REMARK  230  A    between atoms: _558  and  _561
REMARK  231  A    between atoms: _561  and  _562
REMARK  232  A    between atoms: _562  and  _563
REMARK  233  A    between atoms: _565  and  _567
REMARK  234  A    between atoms: _567  and  _568
REMARK  235  A    between atoms: _567  and  _570
REMARK  236  A    between atoms: _570  and  _571
REMARK  237  A    between atoms: _573  and  _575
REMARK  238  A    between atoms: _575  and  _576
REMARK  239  A    between atoms: _575  and  _578
REMARK  240  A    between atoms: _578  and  _579
REMARK  241  A    between atoms: _582  and  _584
REMARK  242  A    between atoms: _584  and  _585
REMARK  243  A    between atoms: _584  and  _587
REMARK  244  A    between atoms: _587  and  _588
REMARK  245  A    between atoms: _593  and  _595
REMARK  246  A    between atoms: _595  and  _596
REMARK  247  A    between atoms: _595  and  _598
REMARK  248  A    between atoms: _598  and  _599
REMARK  249  A    between atoms: _602  and  _604
REMARK  250  A    between atoms: _604  and  _605
REMARK  251  A    between atoms: _604  and  _607
REMARK  252  A    between atoms: _607  and  _608
REMARK  253  A    between atoms: _611  and  _613
REMARK  254  A    between atoms: _613  and  _614
REMARK  255  A    between atoms: _613  and  _616
REMARK  256  A    between atoms: _616  and  _617
REMARK  257  A    between atoms: _617  and  _618
REMARK  258  A    between atoms: _623  and  _625
REMARK  259  A    between atoms: _625  and  _626
REMARK  260  A    between atoms: _625  and  _628
REMARK  261  A    between atoms: _628  and  _629
REMARK  262  A    between atoms: _632  and  _634
REMARK  263  A    between atoms: _634  and  _635
REMARK  264  A    between atoms: _634  and  _637
REMARK  265  A    between atoms: _637  and  _638
REMARK  266  A    between atoms: _643  and  _644
REMARK                            x       y       z     vdW  Elec       q    Type
REMARK                         _______ _______ _______ _____ _____    ______ ____
ROOT
ATOM      1  O   HOH     1      10.845  -1.830   3.825  0.00  0.00    +0.000 OA
ENDROOT
TORSDOF 0
REMARK  Name = ../refined-set-2016/1fm9/1fm9_pocket.pdb
REMARK  266 active torsions:
REMARK  status: ('A' for Active; 'I' for Inactive)
REMARK    1  A    between atoms: _1  and  _3
REMARK    2  A    between atoms: _3  and  _4
REMARK    3  A    between atoms: _3  and  _6
REMARK    4  A    between atoms: _6  and  _7
REMARK    5  A    between atoms: _10  and  _12
REMARK    6  A    between atoms: _12  and  _13
REMARK    7  A    between atoms: _12  and  _15
REMARK    8  A    between atoms: _15  and  _16
REMARK    9  A    between atoms: _19  and  _21
REMARK   10  A    between atoms: _21  and  _22
REMARK   11  A    between atoms: _24  and  _26
REMARK   12  A    between atoms: _26  and  _27
REMARK   13  A    between atoms: _26  and  _29
REMARK   14  A    between atoms: _29  and  _30
REMARK   15  A    between atoms: _30  and  _31
REMARK   16  A    between atoms: _34  and  _36
REMARK   17  A    between atoms: _36  and  _37
REMARK   18  A    between atoms: _36  and  _39
REMARK   19  A    between atoms: _39  and  _40
REMARK   20  A    between atoms: _44  and  _45
REMARK   21  A    between atoms: _50  and  _52
REMARK   22  A    between atoms: _52  and  _53
REMARK   23  A    between atoms: _52  and  _55
REMARK   24  A    between atoms: _55  and  _56
REMARK   25  A    between atoms: _59  and  _61
REMARK   26  A    between atoms: _61  and  _62
REMARK   27  A    between atoms: _61  and  _64
REMARK   28  A    between atoms: _67  and  _69
REMARK   29  A    between atoms: _69  and  _70
REMARK   30  A    between atoms: _73  and  _75
REMARK   31  A    between atoms: _75  and  _76
REMARK   32  A    between atoms: _75  and  _78
REMARK   33  A    between atoms: _78  and  _79
REMARK   34  A    between atoms: _82  and  _84
REMARK   35  A    between atoms: _84  and  _85
REMARK   36  A    between atoms: _84  and  _87
REMARK   37  A    between atoms: _87  and  _88
REMARK   38  A    between atoms: _88  and  _89
REMARK   39  A    between atoms: _89  and  _90
REMARK   40  A    between atoms: _99  and  _101
REMARK   41  A    between atoms: _101  and  _102
REMARK   42  A    between atoms: _101  and  _104
REMARK   43  A    between atoms: _104  and  _105
REMARK   44  A    between atoms: _108  and  _110
REMARK   45  A    between atoms: _110  and  _111
REMARK   46  A    between atoms: _110  and  _113
REMARK   47  A    between atoms: _113  and  _114
REMARK   48  A    between atoms: _120  and  _122
REMARK   49  A    between atoms: _122  and  _123
REMARK   50  A    between atoms: _122  and  _125
REMARK   51  A    between atoms: _125  and  _126
REMARK   52  A    between atoms: _126  and  _127
REMARK   53  A    between atoms: _132  and  _134
REMARK   54  A    between atoms: _134  and  _135
REMARK   55  A    between atoms: _137  and  _139
REMARK   56  A    between atoms: _139  and  _140
REMARK   57  A    between atoms: _139  and  _142
REMARK   58  A    between atoms: _144  and  _146
REMARK   59  A    between atoms: _146  and  _147
REMARK   60  A    between atoms: _146  and  _149
REMARK   61  A    between atoms: _149  and  _150
REMARK   62  A    between atoms: _150  and  _151
REMARK   63  A    between atoms: _156  and  _158
REMARK   64  A    between atoms: _158  and  _159
REMARK   65  A    between atoms: _158  and  _161
REMARK   66  A    between atoms: _161  and  _162
REMARK   67  A    between atoms: _168  and  _170
REMARK   68  A    between atoms: _170  and  _171
REMARK   69  A    between atoms: _170  and  _173
REMARK   70  A    between atoms: _173  and  _174
REMARK   71  A    between atoms: _174  and  _175
REMARK   72  A    between atoms: _175  and  _176
REMARK   73  A    between atoms: _185  and  _187
REMARK   74  A    between atoms: _187  and  _188
REMARK   75  A    between atoms: _187  and  _190
REMARK   76  A    between atoms: _190  and  _191
REMARK   77  A    between atoms: _193  and  _195
REMARK   78  A    between atoms: _195  and  _196
REMARK   79  A    between atoms: _195  and  _198
REMARK   80  A    between atoms: _201  and  _203
REMARK   81  A    between atoms: _203  and  _204
REMARK   82  A    between atoms: _203  and  _206
REMARK   83  A    between atoms: _206  and  _207
REMARK   84  A    between atoms: _207  and  _208
REMARK   85  A    between atoms: _211  and  _213
REMARK   86  A    between atoms: _213  and  _214
REMARK   87  A    between atoms: _217  and  _219
REMARK   88  A    between atoms: _219  and  _220
REMARK   89  A    between atoms: _219  and  _222
REMARK   90  A    between atoms: _225  and  _227
REMARK   91  A    between atoms: _227  and  _228
REMARK   92  A    between atoms: _227  and  _230
REMARK   93  A    between atoms: _233  and  _235
REMARK   94  A    between atoms: _235  and  _236
REMARK   95  A    between atoms: _235  and  _238
REMARK   96  A    between atoms: _238  and  _239
REMARK   97  A    between atoms: _244  and  _246
REMARK   98  A    between atoms: _246  and  _247
REMARK   99  A    between atoms: _246  and  _249
REMARK  100  A    between atoms: _249  and  _250
REMARK  101  A    between atoms: _253  and  _255
REMARK  102  A    between atoms: _255  and  _256
REMARK  103  A    between atoms: _255  and  _258
REMARK  104  A    between atoms: _258  and  _259
REMARK  105  A    between atoms: _264  and  _265
REMARK  106  A    between atoms: _267  and  _269
REMARK  107  A    between atoms: _269  and  _270
REMARK  108  A    between atoms: _269  and  _272
REMARK  109  A    between atoms: _272  and  _273
REMARK  110  A    between atoms: _276  and  _278
REMARK  111  A    between atoms: _278  and  _279
REMARK  112  A    between atoms: _278  and  _281
REMARK  113  A    between atoms: _281  and  _282
REMARK  114  A    between atoms: _285  and  _287
REMARK  115  A    between atoms: _287  and  _288
REMARK  116  A    between atoms: _287  and  _290
REMARK  117  A    between atoms: _290  and  _291
REMARK  118  A    between atoms: _291  and  _292
REMARK  119  A    between atoms: _294  and  _296
REMARK  120  A    between atoms: _296  and  _297
REMARK  121  A    between atoms: _296  and  _299
REMARK  122  A    between atoms: _302  and  _304
REMARK  123  A    between atoms: _304  and  _305
REMARK  124  A    between atoms: _304  and  _307
REMARK  125  A    between atoms: _307  and  _308
REMARK  126  A    between atoms: _311  and  _313
REMARK  127  A    between atoms: _313  and  _314
REMARK  128  A    between atoms: _313  and  _316
REMARK  129  A    between atoms: _316  and  _317
REMARK  130  A    between atoms: _320  and  _322
REMARK  131  A    between atoms: _322  and  _323
REMARK  132  A    between atoms: _322  and  _325
REMARK  133  A    between atoms: _325  and  _326
REMARK  134  A    between atoms: _328  and  _330
REMARK  135  A    between atoms: _330  and  _331
REMARK  136  A    between atoms: _330  and  _333
REMARK  137  A    between atoms: _333  and  _334
REMARK  138  A    between atoms: _334  and  _335
REMARK  139  A    between atoms: _338  and  _340
REMARK  140  A    between atoms: _340  and  _341
REMARK  141  A    between atoms: _343  and  _345
REMARK  142  A    between atoms: _345  and  _346
REMARK  143  A    between atoms: _348  and  _350
REMARK  144  A    between atoms: _350  and  _351
REMARK  145  A    between atoms: _350  and  _353
REMARK  146  A    between atoms: _353  and  _354
REMARK  147  A    between atoms: _354  and  _355
REMARK  148  A    between atoms: _357  and  _359
REMARK  149  A    between atoms: _359  and  _360
REMARK  150  A    between atoms: _359  and  _362
REMARK  151  A    between atoms: _362  and  _363
REMARK  152  A    between atoms: _366  and  _368
REMARK  153  A    between atoms: _368  and  _369
REMARK  154  A    between atoms: _368  and  _371
REMARK  155  A    between atoms: _371  and  _372
REMARK  156  A    between atoms: _378  and  _380
REMARK  157  A    between atoms: _380  and  _381
REMARK  158  A    between atoms: _380  and  _383
REMARK  159  A    between atoms: _383  and  _384
REMARK  160  A    between atoms: _387  and  _389
REMARK  161  A    between atoms: _389  and  _390
REMARK  162  A    between atoms: _389  and  _392
REMARK  163  A    between atoms: _392  and  _393
REMARK  164  A    between atoms: _396  and  _398
REMARK  165  A    between atoms: _398  and  _399
REMARK  166  A    between atoms: _398  and  _401
REMARK  167  A    between atoms: _401  and  _402
REMARK  168  A    between atoms: _402  and  _403
REMARK  169  A    between atoms: _403  and  _404
REMARK  170  A    between atoms: _414  and  _415
REMARK  171  A    between atoms: _420  and  _422
REMARK  172  A    between atoms: _422  and  _423
REMARK  173  A    between atoms: _422  and  _425
REMARK  174  A    between atoms: _425  and  _426
REMARK  175  A    between atoms: _432  and  _434
REMARK  176  A    between atoms: _434  and  _435
REMARK  177  A    between atoms: _437  and  _439
REMARK  178  A    between atoms: _439  and  _440
REMARK  179  A    between atoms: _439  and  _442
REMARK  180  A    between atoms: _442  and  _443
REMARK  181  A    between atoms: _446  and  _448
REMARK  182  A    between atoms: _448  and  _449
REMARK  183  A    between atoms: _448  and  _451
REMARK  184  A    between atoms: _451  and  _452
REMARK  185  A    between atoms: _458  and  _460
REMARK  186  A    between atoms: _460  and  _461
REMARK  187  A    between atoms: _460  and  _463
REMARK  188  A    between atoms: _463  and  _464
REMARK  189  A    between atoms: _464  and  _465
REMARK  190  A    between atoms: _467  and  _469
REMARK  191  A    between atoms: _469  and  _470
REMARK  192  A    between atoms: _469  and  _472
REMARK  193  A    between atoms: _472  and  _473
REMARK  194  A    between atoms: _473  and  _474
REMARK  195  A    between atoms: _477  and  _479
REMARK  196  A    between atoms: _479  and  _480
REMARK  197  A    between atoms: _479  and  _482
REMARK  198  A    between atoms: _482  and  _483
REMARK  199  A    between atoms: _483  and  _484
REMARK  200  A    between atoms: _484  and  _485
REMARK  201  A    between atoms: _485  and  _486
REMARK  202  A    between atoms: _490  and  _492
REMARK  203  A    between atoms: _492  and  _493
REMARK  204  A    between atoms: _492  and  _495
REMARK  205  A    between atoms: _495  and  _496
REMARK  206  A    between atoms: _502  and  _504
REMARK  207  A    between atoms: _504  and  _505
REMARK  208  A    between atoms: _504  and  _507
REMARK  209  A    between atoms: _510  and  _512
REMARK  210  A    between atoms: _512  and  _513
REMARK  211  A    between atoms: _512  and  _515
REMARK  212  A    between atoms: _515  and  _516
REMARK  213  A    between atoms: _521  and  _523
REMARK  214  A    between atoms: _523  and  _524
REMARK  215  A    between atoms: _523  and  _526
REMARK  216  A    between atoms: _529  and  _531
REMARK  217  A    between atoms: _531  and  _532
REMARK  218  A    between atoms: _531  and  _534
REMARK  219  A    between atoms: _534  and  _535
REMARK  220  A    between atoms: _538  and  _540
REMARK  221  A    between atoms: _540  and  _541
REMARK  222  A    between atoms: _540  and  _543
REMARK  223  A    between atoms: _543  and  _544
REMARK  224  A    between atoms: _547  and  _549
REMARK  225  A    between atoms: _549  and  _550
REMARK  226  A    between atoms: _549  and  _552
REMARK  227  A    between atoms: _552  and  _553
REMARK  228  A    between atoms: _556  and  _558
REMARK  229  A    between atoms: _558  and  _559
REMARK  230  A    between atoms: _558  and  _561
REMARK  231  A    between atoms: _561  and  _562
REMARK  232  A    between atoms: _562  and  _563
REMARK  233  A    between atoms: _565  and  _567
REMARK  234  A    between atoms: _567  and  _568
REMARK  235  A    between atoms: _567  and  _570
REMARK  236  A    between atoms: _570  and  _571
REMARK  237  A    between atoms: _573  and  _575
REMARK  238  A    between atoms: _575  and  _576
REMARK  239  A    between atoms: _575  and  _578
REMARK  240  A    between atoms: _578  and  _579
REMARK  241  A    between atoms: _582  and  _584
REMARK  242  A    between atoms: _584  and  _585
REMARK  243  A    between atoms: _584  and  _587
REMARK  244  A    between atoms: _587  and  _588
REMARK  245  A    between atoms: _593  and  _595
REMARK  246  A    between atoms: _595  and  _596
REMARK  247  A    between atoms: _595  and  _598
REMARK  248  A    between atoms: _598  and  _599
REMARK  249  A    between atoms: _602  and  _604
REMARK  250  A    between atoms: _604  and  _605
REMARK  251  A    between atoms: _604  and  _607
REMARK  252  A    between atoms: _607  and  _608
REMARK  253  A    between atoms: _611  and  _613
REMARK  254  A    between atoms: _613  and  _614
REMARK  255  A    between atoms: _613  and  _616
REMARK  256  A    between atoms: _616  and  _617
REMARK  257  A    between atoms: _617  and  _618
REMARK  258  A    between atoms: _623  and  _625
REMARK  259  A    between atoms: _625  and  _626
REMARK  260  A    between atoms: _625  and  _628
REMARK  261  A    between atoms: _628  and  _629
REMARK  262  A    between atoms: _632  and  _634
REMARK  263  A    between atoms: _634  and  _635
REMARK  264  A    between atoms: _634  and  _637
REMARK  265  A    between atoms: _637  and  _638
REMARK  266  A    between atoms: _643  and  _644
REMARK                            x       y       z     vdW  Elec       q    Type
REMARK                         _______ _______ _______ _____ _____    ______ ____
ROOT
ATOM      1  O   HOH     1      18.950  -0.800  19.715  0.00  0.00    +0.000 OA
ENDROOT
TORSDOF 0
REMARK  Name = ../refined-set-2016/1fm9/1fm9_pocket.pdb
REMARK  266 active torsions:
REMARK  status: ('A' for Active; 'I' for Inactive)
REMARK    1  A    between atoms: _1  and  _3
REMARK    2  A    between atoms: _3  and  _4
REMARK    3  A    between atoms: _3  and  _6
REMARK    4  A    between atoms: _6  and  _7
REMARK    5  A    between atoms: _10  and  _12
REMARK    6  A    between atoms: _12  and  _13
REMARK    7  A    between atoms: _12  and  _15
REMARK    8  A    between atoms: _15  and  _16
REMARK    9  A    between atoms: _19  and  _21
REMARK   10  A    between atoms: _21  and  _22
REMARK   11  A    between atoms: _24  and  _26
REMARK   12  A    between atoms: _26  and  _27
REMARK   13  A    between atoms: _26  and  _29
REMARK   14  A    between atoms: _29  and  _30
REMARK   15  A    between atoms: _30  and  _31
REMARK   16  A    between atoms: _34  and  _36
REMARK   17  A    between atoms: _36  and  _37
REMARK   18  A    between atoms: _36  and  _39
REMARK   19  A    between atoms: _39  and  _40
REMARK   20  A    between atoms: _44  and  _45
REMARK   21  A    between atoms: _50  and  _52
REMARK   22  A    between atoms: _52  and  _53
REMARK   23  A    between atoms: _52  and  _55
REMARK   24  A    between atoms: _55  and  _56
REMARK   25  A    between atoms: _59  and  _61
REMARK   26  A    between atoms: _61  and  _62
REMARK   27  A    between atoms: _61  and  _64
REMARK   28  A    between atoms: _67  and  _69
REMARK   29  A    between atoms: _69  and  _70
REMARK   30  A    between atoms: _73  and  _75
REMARK   31  A    between atoms: _75  and  _76
REMARK   32  A    between atoms: _75  and  _78
REMARK   33  A    between atoms: _78  and  _79
REMARK   34  A    between atoms: _82  and  _84
REMARK   35  A    between atoms: _84  and  _85
REMARK   36  A    between atoms: _84  and  _87
REMARK   37  A    between atoms: _87  and  _88
REMARK   38  A    between atoms: _88  and  _89
REMARK   39  A    between atoms: _89  and  _90
REMARK   40  A    between atoms: _99  and  _101
REMARK   41  A    between atoms: _101  and  _102
REMARK   42  A    between atoms: _101  and  _104
REMARK   43  A    between atoms: _104  and  _105
REMARK   44  A    between atoms: _108  and  _110
REMARK   45  A    between atoms: _110  and  _111
REMARK   46  A    between atoms: _110  and  _113
REMARK   47  A    between atoms: _113  and  _114
REMARK   48  A    between atoms: _120  and  _122
REMARK   49  A    between atoms: _122  and  _123
REMARK   50  A    between atoms: _122  and  _125
REMARK   51  A    between atoms: _125  and  _126
REMARK   52  A    between atoms: _126  and  _127
REMARK   53  A    between atoms: _132  and  _134
REMARK   54  A    between atoms: _134  and  _135
REMARK   55  A    between atoms: _137  and  _139
REMARK   56  A    between atoms: _139  and  _140
REMARK   57  A    between atoms: _139  and  _142
REMARK   58  A    between atoms: _144  and  _146
REMARK   59  A    between atoms: _146  and  _147
REMARK   60  A    between atoms: _146  and  _149
REMARK   61  A    between atoms: _149  and  _150
REMARK   62  A    between atoms: _150  and  _151
REMARK   63  A    between atoms: _156  and  _158
REMARK   64  A    between atoms: _158  and  _159
REMARK   65  A    between atoms: _158  and  _161
REMARK   66  A    between atoms: _161  and  _162
REMARK   67  A    between atoms: _168  and  _170
REMARK   68  A    between atoms: _170  and  _171
REMARK   69  A    between atoms: _170  and  _173
REMARK   70  A    between atoms: _173  and  _174
REMARK   71  A    between atoms: _174  and  _175
REMARK   72  A    between atoms: _175  and  _176
REMARK   73  A    between atoms: _185  and  _187
REMARK   74  A    between atoms: _187  and  _188
REMARK   75  A    between atoms: _187  and  _190
REMARK   76  A    between atoms: _190  and  _191
REMARK   77  A    between atoms: _193  and  _195
REMARK   78  A    between atoms: _195  and  _196
REMARK   79  A    between atoms: _195  and  _198
REMARK   80  A    between atoms: _201  and  _203
REMARK   81  A    between atoms: _203  and  _204
REMARK   82  A    between atoms: _203  and  _206
REMARK   83  A    between atoms: _206  and  _207
REMARK   84  A    between atoms: _207  and  _208
REMARK   85  A    between atoms: _211  and  _213
REMARK   86  A    between atoms: _213  and  _214
REMARK   87  A    between atoms: _217  and  _219
REMARK   88  A    between atoms: _219  and  _220
REMARK   89  A    between atoms: _219  and  _222
REMARK   90  A    between atoms: _225  and  _227
REMARK   91  A    between atoms: _227  and  _228
REMARK   92  A    between atoms: _227  and  _230
REMARK   93  A    between atoms: _233  and  _235
REMARK   94  A    between atoms: _235  and  _236
REMARK   95  A    between atoms: _235  and  _238
REMARK   96  A    between atoms: _238  and  _239
REMARK   97  A    between atoms: _244  and  _246
REMARK   98  A    between atoms: _246  and  _247
REMARK   99  A    between atoms: _246  and  _249
REMARK  100  A    between atoms: _249  and  _250
REMARK  101  A    between atoms: _253  and  _255
REMARK  102  A    between atoms: _255  and  _256
REMARK  103  A    between atoms: _255  and  _258
REMARK  104  A    between atoms: _258  and  _259
REMARK  105  A    between atoms: _264  and  _265
REMARK  106  A    between atoms: _267  and  _269
REMARK  107  A    between atoms: _269  and  _270
REMARK  108  A    between atoms: _269  and  _272
REMARK  109  A    between atoms: _272  and  _273
REMARK  110  A    between atoms: _276  and  _278
REMARK  111  A    between atoms: _278  and  _279
REMARK  112  A    between atoms: _278  and  _281
REMARK  113  A    between atoms: _281  and  _282
REMARK  114  A    between atoms: _285  and  _287
REMARK  115  A    between atoms: _287  and  _288
REMARK  116  A    between atoms: _287  and  _290
REMARK  117  A    between atoms: _290  and  _291
REMARK  118  A    between atoms: _291  and  _292
REMARK  119  A    between atoms: _294  and  _296
REMARK  120  A    between atoms: _296  and  _297
REMARK  121  A    between atoms: _296  and  _299
REMARK  122  A    between atoms: _302  and  _304
REMARK  123  A    between atoms: _304  and  _305
REMARK  124  A    between atoms: _304  and  _307
REMARK  125  A    between atoms: _307  and  _308
REMARK  126  A    between atoms: _311  and  _313
REMARK  127  A    between atoms: _313  and  _314
REMARK  128  A    between atoms: _313  and  _316
REMARK  129  A    between atoms: _316  and  _317
REMARK  130  A    between atoms: _320  and  _322
REMARK  131  A    between atoms: _322  and  _323
REMARK  132  A    between atoms: _322  and  _325
REMARK  133  A    between atoms: _325  and  _326
REMARK  134  A    between atoms: _328  and  _330
REMARK  135  A    between atoms: _330  and  _331
REMARK  136  A    between atoms: _330  and  _333
REMARK  137  A    between atoms: _333  and  _334
REMARK  138  A    between atoms: _334  and  _335
REMARK  139  A    between atoms: _338  and  _340
REMARK  140  A    between atoms: _340  and  _341
REMARK  141  A    between atoms: _343  and  _345
REMARK  142  A    between atoms: _345  and  _346
REMARK  143  A    between atoms: _348  and  _350
REMARK  144  A    between atoms: _350  and  _351
REMARK  145  A    between atoms: _350  and  _353
REMARK  146  A    between atoms: _353  and  _354
REMARK  147  A    between atoms: _354  and  _355
REMARK  148  A    between atoms: _357  and  _359
REMARK  149  A    between atoms: _359  and  _360
REMARK  150  A    between atoms: _359  and  _362
REMARK  151  A    between atoms: _362  and  _363
REMARK  152  A    between atoms: _366  and  _368
REMARK  153  A    between atoms: _368  and  _369
REMARK  154  A    between atoms: _368  and  _371
REMARK  155  A    between atoms: _371  and  _372
REMARK  156  A    between atoms: _378  and  _380
REMARK  157  A    between atoms: _380  and  _381
REMARK  158  A    between atoms: _380  and  _383
REMARK  159  A    between atoms: _383  and  _384
REMARK  160  A    between atoms: _387  and  _389
REMARK  161  A    between atoms: _389  and  _390
REMARK  162  A    between atoms: _389  and  _392
REMARK  163  A    between atoms: _392  and  _393
REMARK  164  A    between atoms: _396  and  _398
REMARK  165  A    between atoms: _398  and  _399
REMARK  166  A    between atoms: _398  and  _401
REMARK  167  A    between atoms: _401  and  _402
REMARK  168  A    between atoms: _402  and  _403
REMARK  169  A    between atoms: _403  and  _404
REMARK  170  A    between atoms: _414  and  _415
REMARK  171  A    between atoms: _420  and  _422
REMARK  172  A    between atoms: _422  and  _423
REMARK  173  A    between atoms: _422  and  _425
REMARK  174  A    between atoms: _425  and  _426
REMARK  175  A    between atoms: _432  and  _434
REMARK  176  A    between atoms: _434  and  _435
REMARK  177  A    between atoms: _437  and  _439
REMARK  178  A    between atoms: _439  and  _440
REMARK  179  A    between atoms: _439  and  _442
REMARK  180  A    between atoms: _442  and  _443
REMARK  181  A    between atoms: _446  and  _448
REMARK  182  A    between atoms: _448  and  _449
REMARK  183  A    between atoms: _448  and  _451
REMARK  184  A    between atoms: _451  and  _452
REMARK  185  A    between atoms: _458  and  _460
REMARK  186  A    between atoms: _460  and  _461
REMARK  187  A    between atoms: _460  and  _463
REMARK  188  A    between atoms: _463  and  _464
REMARK  189  A    between atoms: _464  and  _465
REMARK  190  A    between atoms: _467  and  _469
REMARK  191  A    between atoms: _469  and  _470
REMARK  192  A    between atoms: _469  and  _472
REMARK  193  A    between atoms: _472  and  _473
REMARK  194  A    between atoms: _473  and  _474
REMARK  195  A    between atoms: _477  and  _479
REMARK  196  A    between atoms: _479  and  _480
REMARK  197  A    between atoms: _479  and  _482
REMARK  198  A    between atoms: _482  and  _483
REMARK  199  A    between atoms: _483  and  _484
REMARK  200  A    between atoms: _484  and  _485
REMARK  201  A    between atoms: _485  and  _486
REMARK  202  A    between atoms: _490  and  _492
REMARK  203  A    between atoms: _492  and  _493
REMARK  204  A    between atoms: _492  and  _495
REMARK  205  A    between atoms: _495  and  _496
REMARK  206  A    between atoms: _502  and  _504
REMARK  207  A    between atoms: _504  and  _505
REMARK  208  A    between atoms: _504  and  _507
REMARK  209  A    between atoms: _510  and  _512
REMARK  210  A    between atoms: _512  and  _513
REMARK  211  A    between atoms: _512  and  _515
REMARK  212  A    between atoms: _515  and  _516
REMARK  213  A    between atoms: _521  and  _523
REMARK  214  A    between atoms: _523  and  _524
REMARK  215  A    between atoms: _523  and  _526
REMARK  216  A    between atoms: _529  and  _531
REMARK  217  A    between atoms: _531  and  _532
REMARK  218  A    between atoms: _531  and  _534
REMARK  219  A    between atoms: _534  and  _535
REMARK  220  A    between atoms: _538  and  _540
REMARK  221  A    between atoms: _540  and  _541
REMARK  222  A    between atoms: _540  and  _543
REMARK  223  A    between atoms: _543  and  _544
REMARK  224  A    between atoms: _547  and  _549
REMARK  225  A    between atoms: _549  and  _550
REMARK  226  A    between atoms: _549  and  _552
REMARK  227  A    between atoms: _552  and  _553
REMARK  228  A    between atoms: _556  and  _558
REMARK  229  A    between atoms: _558  and  _559
REMARK  230  A    between atoms: _558  and  _561
REMARK  231  A    between atoms: _561  and  _562
REMARK  232  A    between atoms: _562  and  _563
REMARK  233  A    between atoms: _565  and  _567
REMARK  234  A    between atoms: _567  and  _568
REMARK  235  A    between atoms: _567  and  _570
REMARK  236  A    between atoms: _570  and  _571
REMARK  237  A    between atoms: _573  and  _575
REMARK  238  A    between atoms: _575  and  _576
REMARK  239  A    between atoms: _575  and  _578
REMARK  240  A    between atoms: _578  and  _579
REMARK  241  A    between atoms: _582  and  _584
REMARK  242  A    between atoms: _584  and  _585
REMARK  243  A    between atoms: _584  and  _587
REMARK  244  A    between atoms: _587  and  _588
REMARK  245  A    between atoms: _593  and  _595
REMARK  246  A    between atoms: _595  and  _596
REMARK  247  A    between atoms: _595  and  _598
REMARK  248  A    between atoms: _598  and  _599
REMARK  249  A    between atoms: _602  and  _604
REMARK  250  A    between atoms: _604  and  _605
REMARK  251  A    between atoms: _604  and  _607
REMARK  252  A    between atoms: _607  and  _608
REMARK  253  A    between atoms: _611  and  _613
REMARK  254  A    between atoms: _613  and  _614
REMARK  255  A    between atoms: _613  and  _616
REMARK  256  A    between atoms: _616  and  _617
REMARK  257  A    between atoms: _617  and  _618
REMARK  258  A    between atoms: _623  and  _625
REMARK  259  A    between atoms: _625  and  _626
REMARK  260  A    between atoms: _625  and  _628
REMARK  261  A    between atoms: _628  and  _629
REMARK  262  A    between atoms: _632  and  _634
REMARK  263  A    between atoms: _634  and  _635
REMARK  264  A    between atoms: _634  and  _637
REMARK  265  A    between atoms: _637  and  _638
REMARK  266  A    between atoms: _643  and  _644
REMARK                            x       y       z     vdW  Elec       q    Type
REMARK                         _______ _______ _______ _____ _____    ______ ____
ROOT
ATOM      1  O   HOH     1      14.626  -4.888  18.722  0.00  0.00    +0.000 OA
ENDROOT
TORSDOF 0
REMARK  Name = ../refined-set-2016/1fm9/1fm9_pocket.pdb
REMARK  266 active torsions:
REMARK  status: ('A' for Active; 'I' for Inactive)
REMARK    1  A    between atoms: _1  and  _3
REMARK    2  A    between atoms: _3  and  _4
REMARK    3  A    between atoms: _3  and  _6
REMARK    4  A    between atoms: _6  and  _7
REMARK    5  A    between atoms: _10  and  _12
REMARK    6  A    between atoms: _12  and  _13
REMARK    7  A    between atoms: _12  and  _15
REMARK    8  A    between atoms: _15  and  _16
REMARK    9  A    between atoms: _19  and  _21
REMARK   10  A    between atoms: _21  and  _22
REMARK   11  A    between atoms: _24  and  _26
REMARK   12  A    between atoms: _26  and  _27
REMARK   13  A    between atoms: _26  and  _29
REMARK   14  A    between atoms: _29  and  _30
REMARK   15  A    between atoms: _30  and  _31
REMARK   16  A    between atoms: _34  and  _36
REMARK   17  A    between atoms: _36  and  _37
REMARK   18  A    between atoms: _36  and  _39
REMARK   19  A    between atoms: _39  and  _40
REMARK   20  A    between atoms: _44  and  _45
REMARK   21  A    between atoms: _50  and  _52
REMARK   22  A    between atoms: _52  and  _53
REMARK   23  A    between atoms: _52  and  _55
REMARK   24  A    between atoms: _55  and  _56
REMARK   25  A    between atoms: _59  and  _61
REMARK   26  A    between atoms: _61  and  _62
REMARK   27  A    between atoms: _61  and  _64
REMARK   28  A    between atoms: _67  and  _69
REMARK   29  A    between atoms: _69  and  _70
REMARK   30  A    between atoms: _73  and  _75
REMARK   31  A    between atoms: _75  and  _76
REMARK   32  A    between atoms: _75  and  _78
REMARK   33  A    between atoms: _78  and  _79
REMARK   34  A    between atoms: _82  and  _84
REMARK   35  A    between atoms: _84  and  _85
REMARK   36  A    between atoms: _84  and  _87
REMARK   37  A    between atoms: _87  and  _88
REMARK   38  A    between atoms: _88  and  _89
REMARK   39  A    between atoms: _89  and  _90
REMARK   40  A    between atoms: _99  and  _101
REMARK   41  A    between atoms: _101  and  _102
REMARK   42  A    between atoms: _101  and  _104
REMARK   43  A    between atoms: _104  and  _105
REMARK   44  A    between atoms: _108  and  _110
REMARK   45  A    between atoms: _110  and  _111
REMARK   46  A    between atoms: _110  and  _113
REMARK   47  A    between atoms: _113  and  _114
REMARK   48  A    between atoms: _120  and  _122
REMARK   49  A    between atoms: _122  and  _123
REMARK   50  A    between atoms: _122  and  _125
REMARK   51  A    between atoms: _125  and  _126
REMARK   52  A    between atoms: _126  and  _127
REMARK   53  A    between atoms: _132  and  _134
REMARK   54  A    between atoms: _134  and  _135
REMARK   55  A    between atoms: _137  and  _139
REMARK   56  A    between atoms: _139  and  _140
REMARK   57  A    between atoms: _139  and  _142
REMARK   58  A    between atoms: _144  and  _146
REMARK   59  A    between atoms: _146  and  _147
REMARK   60  A    between atoms: _146  and  _149
REMARK   61  A    between atoms: _149  and  _150
REMARK   62  A    between atoms: _150  and  _151
REMARK   63  A    between atoms: _156  and  _158
REMARK   64  A    between atoms: _158  and  _159
REMARK   65  A    between atoms: _158  and  _161
REMARK   66  A    between atoms: _161  and  _162
REMARK   67  A    between atoms: _168  and  _170
REMARK   68  A    between atoms: _170  and  _171
REMARK   69  A    between atoms: _170  and  _173
REMARK   70  A    between atoms: _173  and  _174
REMARK   71  A    between atoms: _174  and  _175
REMARK   72  A    between atoms: _175  and  _176
REMARK   73  A    between atoms: _185  and  _187
REMARK   74  A    between atoms: _187  and  _188
REMARK   75  A    between atoms: _187  and  _190
REMARK   76  A    between atoms: _190  and  _191
REMARK   77  A    between atoms: _193  and  _195
REMARK   78  A    between atoms: _195  and  _196
REMARK   79  A    between atoms: _195  and  _198
REMARK   80  A    between atoms: _201  and  _203
REMARK   81  A    between atoms: _203  and  _204
REMARK   82  A    between atoms: _203  and  _206
REMARK   83  A    between atoms: _206  and  _207
REMARK   84  A    between atoms: _207  and  _208
REMARK   85  A    between atoms: _211  and  _213
REMARK   86  A    between atoms: _213  and  _214
REMARK   87  A    between atoms: _217  and  _219
REMARK   88  A    between atoms: _219  and  _220
REMARK   89  A    between atoms: _219  and  _222
REMARK   90  A    between atoms: _225  and  _227
REMARK   91  A    between atoms: _227  and  _228
REMARK   92  A    between atoms: _227  and  _230
REMARK   93  A    between atoms: _233  and  _235
REMARK   94  A    between atoms: _235  and  _236
REMARK   95  A    between atoms: _235  and  _238
REMARK   96  A    between atoms: _238  and  _239
REMARK   97  A    between atoms: _244  and  _246
REMARK   98  A    between atoms: _246  and  _247
REMARK   99  A    between atoms: _246  and  _249
REMARK  100  A    between atoms: _249  and  _250
REMARK  101  A    between atoms: _253  and  _255
REMARK  102  A    between atoms: _255  and  _256
REMARK  103  A    between atoms: _255  and  _258
REMARK  104  A    between atoms: _258  and  _259
REMARK  105  A    between atoms: _264  and  _265
REMARK  106  A    between atoms: _267  and  _269
REMARK  107  A    between atoms: _269  and  _270
REMARK  108  A    between atoms: _269  and  _272
REMARK  109  A    between atoms: _272  and  _273
REMARK  110  A    between atoms: _276  and  _278
REMARK  111  A    between atoms: _278  and  _279
REMARK  112  A    between atoms: _278  and  _281
REMARK  113  A    between atoms: _281  and  _282
REMARK  114  A    between atoms: _285  and  _287
REMARK  115  A    between atoms: _287  and  _288
REMARK  116  A    between atoms: _287  and  _290
REMARK  117  A    between atoms: _290  and  _291
REMARK  118  A    between atoms: _291  and  _292
REMARK  119  A    between atoms: _294  and  _296
REMARK  120  A    between atoms: _296  and  _297
REMARK  121  A    between atoms: _296  and  _299
REMARK  122  A    between atoms: _302  and  _304
REMARK  123  A    between atoms: _304  and  _305
REMARK  124  A    between atoms: _304  and  _307
REMARK  125  A    between atoms: _307  and  _308
REMARK  126  A    between atoms: _311  and  _313
REMARK  127  A    between atoms: _313  and  _314
REMARK  128  A    between atoms: _313  and  _316
REMARK  129  A    between atoms: _316  and  _317
REMARK  130  A    between atoms: _320  and  _322
REMARK  131  A    between atoms: _322  and  _323
REMARK  132  A    between atoms: _322  and  _325
REMARK  133  A    between atoms: _325  and  _326
REMARK  134  A    between atoms: _328  and  _330
REMARK  135  A    between atoms: _330  and  _331
REMARK  136  A    between atoms: _330  and  _333
REMARK  137  A    between atoms: _333  and  _334
REMARK  138  A    between atoms: _334  and  _335
REMARK  139  A    between atoms: _338  and  _340
REMARK  140  A    between atoms: _340  and  _341
REMARK  141  A    between atoms: _343  and  _345
REMARK  142  A    between atoms: _345  and  _346
REMARK  143  A    between atoms: _348  and  _350
REMARK  144  A    between atoms: _350  and  _351
REMARK  145  A    between atoms: _350  and  _353
REMARK  146  A    between atoms: _353  and  _354
REMARK  147  A    between atoms: _354  and  _355
REMARK  148  A    between atoms: _357  and  _359
REMARK  149  A    between atoms: _359  and  _360
REMARK  150  A    between atoms: _359  and  _362
REMARK  151  A    between atoms: _362  and  _363
REMARK  152  A    between atoms: _366  and  _368
REMARK  153  A    between atoms: _368  and  _369
REMARK  154  A    between atoms: _368  and  _371
REMARK  155  A    between atoms: _371  and  _372
REMARK  156  A    between atoms: _378  and  _380
REMARK  157  A    between atoms: _380  and  _381
REMARK  158  A    between atoms: _380  and  _383
REMARK  159  A    between atoms: _383  and  _384
REMARK  160  A    between atoms: _387  and  _389
REMARK  161  A    between atoms: _389  and  _390
REMARK  162  A    between atoms: _389  and  _392
REMARK  163  A    between atoms: _392  and  _393
REMARK  164  A    between atoms: _396  and  _398
REMARK  165  A    between atoms: _398  and  _399
REMARK  166  A    between atoms: _398  and  _401
REMARK  167  A    between atoms: _401  and  _402
REMARK  168  A    between atoms: _402  and  _403
REMARK  169  A    between atoms: _403  and  _404
REMARK  170  A    between atoms: _414  and  _415
REMARK  171  A    between atoms: _420  and  _422
REMARK  172  A    between atoms: _422  and  _423
REMARK  173  A    between atoms: _422  and  _425
REMARK  174  A    between atoms: _425  and  _426
REMARK  175  A    between atoms: _432  and  _434
REMARK  176  A    between atoms: _434  and  _435
REMARK  177  A    between atoms: _437  and  _439
REMARK  178  A    between atoms: _439  and  _440
REMARK  179  A    between atoms: _439  and  _442
REMARK  180  A    between atoms: _442  and  _443
REMARK  181  A    between atoms: _446  and  _448
REMARK  182  A    between atoms: _448  and  _449
REMARK  183  A    between atoms: _448  and  _451
REMARK  184  A    between atoms: _451  and  _452
REMARK  185  A    between atoms: _458  and  _460
REMARK  186  A    between atoms: _460  and  _461
REMARK  187  A    between atoms: _460  and  _463
REMARK  188  A    between atoms: _463  and  _464
REMARK  189  A    between atoms: _464  and  _465
REMARK  190  A    between atoms: _467  and  _469
REMARK  191  A    between atoms: _469  and  _470
REMARK  192  A    between atoms: _469  and  _472
REMARK  193  A    between atoms: _472  and  _473
REMARK  194  A    between atoms: _473  and  _474
REMARK  195  A    between atoms: _477  and  _479
REMARK  196  A    between atoms: _479  and  _480
REMARK  197  A    between atoms: _479  and  _482
REMARK  198  A    between atoms: _482  and  _483
REMARK  199  A    between atoms: _483  and  _484
REMARK  200  A    between atoms: _484  and  _485
REMARK  201  A    between atoms: _485  and  _486
REMARK  202  A    between atoms: _490  and  _492
REMARK  203  A    between atoms: _492  and  _493
REMARK  204  A    between atoms: _492  and  _495
REMARK  205  A    between atoms: _495  and  _496
REMARK  206  A    between atoms: _502  and  _504
REMARK  207  A    between atoms: _504  and  _505
REMARK  208  A    between atoms: _504  and  _507
REMARK  209  A    between atoms: _510  and  _512
REMARK  210  A    between atoms: _512  and  _513
REMARK  211  A    between atoms: _512  and  _515
REMARK  212  A    between atoms: _515  and  _516
REMARK  213  A    between atoms: _521  and  _523
REMARK  214  A    between atoms: _523  and  _524
REMARK  215  A    between atoms: _523  and  _526
REMARK  216  A    between atoms: _529  and  _531
REMARK  217  A    between atoms: _531  and  _532
REMARK  218  A    between atoms: _531  and  _534
REMARK  219  A    between atoms: _534  and  _535
REMARK  220  A    between atoms: _538  and  _540
REMARK  221  A    between atoms: _540  and  _541
REMARK  222  A    between atoms: _540  and  _543
REMARK  223  A    between atoms: _543  and  _544
REMARK  224  A    between atoms: _547  and  _549
REMARK  225  A    between atoms: _549  and  _550
REMARK  226  A    between atoms: _549  and  _552
REMARK  227  A    between atoms: _552  and  _553
REMARK  228  A    between atoms: _556  and  _558
REMARK  229  A    between atoms: _558  and  _559
REMARK  230  A    between atoms: _558  and  _561
REMARK  231  A    between atoms: _561  and  _562
REMARK  232  A    between atoms: _562  and  _563
REMARK  233  A    between atoms: _565  and  _567
REMARK  234  A    between atoms: _567  and  _568
REMARK  235  A    between atoms: _567  and  _570
REMARK  236  A    between atoms: _570  and  _571
REMARK  237  A    between atoms: _573  and  _575
REMARK  238  A    between atoms: _575  and  _576
REMARK  239  A    between atoms: _575  and  _578
REMARK  240  A    between atoms: _578  and  _579
REMARK  241  A    between atoms: _582  and  _584
REMARK  242  A    between atoms: _584  and  _585
REMARK  243  A    between atoms: _584  and  _587
REMARK  244  A    between atoms: _587  and  _588
REMARK  245  A    between atoms: _593  and  _595
REMARK  246  A    between atoms: _595  and  _596
REMARK  247  A    between atoms: _595  and  _598
REMARK  248  A    between atoms: _598  and  _599
REMARK  249  A    between atoms: _602  and  _604
REMARK  250  A    between atoms: _604  and  _605
REMARK  251  A    between atoms: _604  and  _607
REMARK  252  A    between atoms: _607  and  _608
REMARK  253  A    between atoms: _611  and  _613
REMARK  254  A    between atoms: _613  and  _614
REMARK  255  A    between atoms: _613  and  _616
REMARK  256  A    between atoms: _616  and  _617
REMARK  257  A    between atoms: _617  and  _618
REMARK  258  A    between atoms: _623  and  _625
REMARK  259  A    between atoms: _625  and  _626
REMARK  260  A    between atoms: _625  and  _628
REMARK  261  A    between atoms: _628  and  _629
REMARK  262  A    between atoms: _632  and  _634
REMARK  263  A    between atoms: _634  and  _635
REMARK  264  A    between atoms: _634  and  _637
REMARK  265  A    between atoms: _637  and  _638
REMARK  266  A    between atoms: _643  and  _644
REMARK                            x       y       z     vdW  Elec       q    Type
REMARK                         _______ _______ _______ _____ _____    ______ ____
ROOT
ATOM      1  O   HOH     1       5.539 -11.198  11.385  0.00  0.00    +0.000 OA
ENDROOT
TORSDOF 0
REMARK  Name = ../refined-set-2016/1fm9/1fm9_pocket.pdb
REMARK  266 active torsions:
REMARK  status: ('A' for Active; 'I' for Inactive)
REMARK    1  A    between atoms: _1  and  _3
REMARK    2  A    between atoms: _3  and  _4
REMARK    3  A    between atoms: _3  and  _6
REMARK    4  A    between atoms: _6  and  _7
REMARK    5  A    between atoms: _10  and  _12
REMARK    6  A    between atoms: _12  and  _13
REMARK    7  A    between atoms: _12  and  _15
REMARK    8  A    between atoms: _15  and  _16
REMARK    9  A    between atoms: _19  and  _21
REMARK   10  A    between atoms: _21  and  _22
REMARK   11  A    between atoms: _24  and  _26
REMARK   12  A    between atoms: _26  and  _27
REMARK   13  A    between atoms: _26  and  _29
REMARK   14  A    between atoms: _29  and  _30
REMARK   15  A    between atoms: _30  and  _31
REMARK   16  A    between atoms: _34  and  _36
REMARK   17  A    between atoms: _36  and  _37
REMARK   18  A    between atoms: _36  and  _39
REMARK   19  A    between atoms: _39  and  _40
REMARK   20  A    between atoms: _44  and  _45
REMARK   21  A    between atoms: _50  and  _52
REMARK   22  A    between atoms: _52  and  _53
REMARK   23  A    between atoms: _52  and  _55
REMARK   24  A    between atoms: _55  and  _56
REMARK   25  A    between atoms: _59  and  _61
REMARK   26  A    between atoms: _61  and  _62
REMARK   27  A    between atoms: _61  and  _64
REMARK   28  A    between atoms: _67  and  _69
REMARK   29  A    between atoms: _69  and  _70
REMARK   30  A    between atoms: _73  and  _75
REMARK   31  A    between atoms: _75  and  _76
REMARK   32  A    between atoms: _75  and  _78
REMARK   33  A    between atoms: _78  and  _79
REMARK   34  A    between atoms: _82  and  _84
REMARK   35  A    between atoms: _84  and  _85
REMARK   36  A    between atoms: _84  and  _87
REMARK   37  A    between atoms: _87  and  _88
REMARK   38  A    between atoms: _88  and  _89
REMARK   39  A    between atoms: _89  and  _90
REMARK   40  A    between atoms: _99  and  _101
REMARK   41  A    between atoms: _101  and  _102
REMARK   42  A    between atoms: _101  and  _104
REMARK   43  A    between atoms: _104  and  _105
REMARK   44  A    between atoms: _108  and  _110
REMARK   45  A    between atoms: _110  and  _111
REMARK   46  A    between atoms: _110  and  _113
REMARK   47  A    between atoms: _113  and  _114
REMARK   48  A    between atoms: _120  and  _122
REMARK   49  A    between atoms: _122  and  _123
REMARK   50  A    between atoms: _122  and  _125
REMARK   51  A    between atoms: _125  and  _126
REMARK   52  A    between atoms: _126  and  _127
REMARK   53  A    between atoms: _132  and  _134
REMARK   54  A    between atoms: _134  and  _135
REMARK   55  A    between atoms: _137  and  _139
REMARK   56  A    between atoms: _139  and  _140
REMARK   57  A    between atoms: _139  and  _142
REMARK   58  A    between atoms: _144  and  _146
REMARK   59  A    between atoms: _146  and  _147
REMARK   60  A    between atoms: _146  and  _149
REMARK   61  A    between atoms: _149  and  _150
REMARK   62  A    between atoms: _150  and  _151
REMARK   63  A    between atoms: _156  and  _158
REMARK   64  A    between atoms: _158  and  _159
REMARK   65  A    between atoms: _158  and  _161
REMARK   66  A    between atoms: _161  and  _162
REMARK   67  A    between atoms: _168  and  _170
REMARK   68  A    between atoms: _170  and  _171
REMARK   69  A    between atoms: _170  and  _173
REMARK   70  A    between atoms: _173  and  _174
REMARK   71  A    between atoms: _174  and  _175
REMARK   72  A    between atoms: _175  and  _176
REMARK   73  A    between atoms: _185  and  _187
REMARK   74  A    between atoms: _187  and  _188
REMARK   75  A    between atoms: _187  and  _190
REMARK   76  A    between atoms: _190  and  _191
REMARK   77  A    between atoms: _193  and  _195
REMARK   78  A    between atoms: _195  and  _196
REMARK   79  A    between atoms: _195  and  _198
REMARK   80  A    between atoms: _201  and  _203
REMARK   81  A    between atoms: _203  and  _204
REMARK   82  A    between atoms: _203  and  _206
REMARK   83  A    between atoms: _206  and  _207
REMARK   84  A    between atoms: _207  and  _208
REMARK   85  A    between atoms: _211  and  _213
REMARK   86  A    between atoms: _213  and  _214
REMARK   87  A    between atoms: _217  and  _219
REMARK   88  A    between atoms: _219  and  _220
REMARK   89  A    between atoms: _219  and  _222
REMARK   90  A    between atoms: _225  and  _227
REMARK   91  A    between atoms: _227  and  _228
REMARK   92  A    between atoms: _227  and  _230
REMARK   93  A    between atoms: _233  and  _235
REMARK   94  A    between atoms: _235  and  _236
REMARK   95  A    between atoms: _235  and  _238
REMARK   96  A    between atoms: _238  and  _239
REMARK   97  A    between atoms: _244  and  _246
REMARK   98  A    between atoms: _246  and  _247
REMARK   99  A    between atoms: _246  and  _249
REMARK  100  A    between atoms: _249  and  _250
REMARK  101  A    between atoms: _253  and  _255
REMARK  102  A    between atoms: _255  and  _256
REMARK  103  A    between atoms: _255  and  _258
REMARK  104  A    between atoms: _258  and  _259
REMARK  105  A    between atoms: _264  and  _265
REMARK  106  A    between atoms: _267  and  _269
REMARK  107  A    between atoms: _269  and  _270
REMARK  108  A    between atoms: _269  and  _272
REMARK  109  A    between atoms: _272  and  _273
REMARK  110  A    between atoms: _276  and  _278
REMARK  111  A    between atoms: _278  and  _279
REMARK  112  A    between atoms: _278  and  _281
REMARK  113  A    between atoms: _281  and  _282
REMARK  114  A    between atoms: _285  and  _287
REMARK  115  A    between atoms: _287  and  _288
REMARK  116  A    between atoms: _287  and  _290
REMARK  117  A    between atoms: _290  and  _291
REMARK  118  A    between atoms: _291  and  _292
REMARK  119  A    between atoms: _294  and  _296
REMARK  120  A    between atoms: _296  and  _297
REMARK  121  A    between atoms: _296  and  _299
REMARK  122  A    between atoms: _302  and  _304
REMARK  123  A    between atoms: _304  and  _305
REMARK  124  A    between atoms: _304  and  _307
REMARK  125  A    between atoms: _307  and  _308
REMARK  126  A    between atoms: _311  and  _313
REMARK  127  A    between atoms: _313  and  _314
REMARK  128  A    between atoms: _313  and  _316
REMARK  129  A    between atoms: _316  and  _317
REMARK  130  A    between atoms: _320  and  _322
REMARK  131  A    between atoms: _322  and  _323
REMARK  132  A    between atoms: _322  and  _325
REMARK  133  A    between atoms: _325  and  _326
REMARK  134  A    between atoms: _328  and  _330
REMARK  135  A    between atoms: _330  and  _331
REMARK  136  A    between atoms: _330  and  _333
REMARK  137  A    between atoms: _333  and  _334
REMARK  138  A    between atoms: _334  and  _335
REMARK  139  A    between atoms: _338  and  _340
REMARK  140  A    between atoms: _340  and  _341
REMARK  141  A    between atoms: _343  and  _345
REMARK  142  A    between atoms: _345  and  _346
REMARK  143  A    between atoms: _348  and  _350
REMARK  144  A    between atoms: _350  and  _351
REMARK  145  A    between atoms: _350  and  _353
REMARK  146  A    between atoms: _353  and  _354
REMARK  147  A    between atoms: _354  and  _355
REMARK  148  A    between atoms: _357  and  _359
REMARK  149  A    between atoms: _359  and  _360
REMARK  150  A    between atoms: _359  and  _362
REMARK  151  A    between atoms: _362  and  _363
REMARK  152  A    between atoms: _366  and  _368
REMARK  153  A    between atoms: _368  and  _369
REMARK  154  A    between atoms: _368  and  _371
REMARK  155  A    between atoms: _371  and  _372
REMARK  156  A    between atoms: _378  and  _380
REMARK  157  A    between atoms: _380  and  _381
REMARK  158  A    between atoms: _380  and  _383
REMARK  159  A    between atoms: _383  and  _384
REMARK  160  A    between atoms: _387  and  _389
REMARK  161  A    between atoms: _389  and  _390
REMARK  162  A    between atoms: _389  and  _392
REMARK  163  A    between atoms: _392  and  _393
REMARK  164  A    between atoms: _396  and  _398
REMARK  165  A    between atoms: _398  and  _399
REMARK  166  A    between atoms: _398  and  _401
REMARK  167  A    between atoms: _401  and  _402
REMARK  168  A    between atoms: _402  and  _403
REMARK  169  A    between atoms: _403  and  _404
REMARK  170  A    between atoms: _414  and  _415
REMARK  171  A    between atoms: _420  and  _422
REMARK  172  A    between atoms: _422  and  _423
REMARK  173  A    between atoms: _422  and  _425
REMARK  174  A    between atoms: _425  and  _426
REMARK  175  A    between atoms: _432  and  _434
REMARK  176  A    between atoms: _434  and  _435
REMARK  177  A    between atoms: _437  and  _439
REMARK  178  A    between atoms: _439  and  _440
REMARK  179  A    between atoms: _439  and  _442
REMARK  180  A    between atoms: _442  and  _443
REMARK  181  A    between atoms: _446  and  _448
REMARK  182  A    between atoms: _448  and  _449
REMARK  183  A    between atoms: _448  and  _451
REMARK  184  A    between atoms: _451  and  _452
REMARK  185  A    between atoms: _458  and  _460
REMARK  186  A    between atoms: _460  and  _461
REMARK  187  A    between atoms: _460  and  _463
REMARK  188  A    between atoms: _463  and  _464
REMARK  189  A    between atoms: _464  and  _465
REMARK  190  A    between atoms: _467  and  _469
REMARK  191  A    between atoms: _469  and  _470
REMARK  192  A    between atoms: _469  and  _472
REMARK  193  A    between atoms: _472  and  _473
REMARK  194  A    between atoms: _473  and  _474
REMARK  195  A    between atoms: _477  and  _479
REMARK  196  A    between atoms: _479  and  _480
REMARK  197  A    between atoms: _479  and  _482
REMARK  198  A    between atoms: _482  and  _483
REMARK  199  A    between atoms: _483  and  _484
REMARK  200  A    between atoms: _484  and  _485
REMARK  201  A    between atoms: _485  and  _486
REMARK  202  A    between atoms: _490  and  _492
REMARK  203  A    between atoms: _492  and  _493
REMARK  204  A    between atoms: _492  and  _495
REMARK  205  A    between atoms: _495  and  _496
REMARK  206  A    between atoms: _502  and  _504
REMARK  207  A    between atoms: _504  and  _505
REMARK  208  A    between atoms: _504  and  _507
REMARK  209  A    between atoms: _510  and  _512
REMARK  210  A    between atoms: _512  and  _513
REMARK  211  A    between atoms: _512  and  _515
REMARK  212  A    between atoms: _515  and  _516
REMARK  213  A    between atoms: _521  and  _523
REMARK  214  A    between atoms: _523  and  _524
REMARK  215  A    between atoms: _523  and  _526
REMARK  216  A    between atoms: _529  and  _531
REMARK  217  A    between atoms: _531  and  _532
REMARK  218  A    between atoms: _531  and  _534
REMARK  219  A    between atoms: _534  and  _535
REMARK  220  A    between atoms: _538  and  _540
REMARK  221  A    between atoms: _540  and  _541
REMARK  222  A    between atoms: _540  and  _543
REMARK  223  A    between atoms: _543  and  _544
REMARK  224  A    between atoms: _547  and  _549
REMARK  225  A    between atoms: _549  and  _550
REMARK  226  A    between atoms: _549  and  _552
REMARK  227  A    between atoms: _552  and  _553
REMARK  228  A    between atoms: _556  and  _558
REMARK  229  A    between atoms: _558  and  _559
REMARK  230  A    between atoms: _558  and  _561
REMARK  231  A    between atoms: _561  and  _562
REMARK  232  A    between atoms: _562  and  _563
REMARK  233  A    between atoms: _565  and  _567
REMARK  234  A    between atoms: _567  and  _568
REMARK  235  A    between atoms: _567  and  _570
REMARK  236  A    between atoms: _570  and  _571
REMARK  237  A    between atoms: _573  and  _575
REMARK  238  A    between atoms: _575  and  _576
REMARK  239  A    between atoms: _575  and  _578
REMARK  240  A    between atoms: _578  and  _579
REMARK  241  A    between atoms: _582  and  _584
REMARK  242  A    between atoms: _584  and  _585
REMARK  243  A    between atoms: _584  and  _587
REMARK  244  A    between atoms: _587  and  _588
REMARK  245  A    between atoms: _593  and  _595
REMARK  246  A    between atoms: _595  and  _596
REMARK  247  A    between atoms: _595  and  _598
REMARK  248  A    between atoms: _598  and  _599
REMARK  249  A    between atoms: _602  and  _604
REMARK  250  A    between atoms: _604  and  _605
REMARK  251  A    between atoms: _604  and  _607
REMARK  252  A    between atoms: _607  and  _608
REMARK  253  A    between atoms: _611  and  _613
REMARK  254  A    between atoms: _613  and  _614
REMARK  255  A    between atoms: _613  and  _616
REMARK  256  A    between atoms: _616  and  _617
REMARK  257  A    between atoms: _617  and  _618
REMARK  258  A    between atoms: _623  and  _625
REMARK  259  A    between atoms: _625  and  _626
REMARK  260  A    between atoms: _625  and  _628
REMARK  261  A    between atoms: _628  and  _629
REMARK  262  A    between atoms: _632  and  _634
REMARK  263  A    between atoms: _634  and  _635
REMARK  264  A    between atoms: _634  and  _637
REMARK  265  A    between atoms: _637  and  _638
REMARK  266  A    between atoms: _643  and  _644
REMARK                            x       y       z     vdW  Elec       q    Type
REMARK                         _______ _______ _______ _____ _____    ______ ____
ROOT
ATOM      1  O   HOH     1      19.198  -8.809   4.463  0.00  0.00    +0.000 OA
ENDROOT
TORSDOF 0
REMARK  Name = ../refined-set-2016/1fm9/1fm9_pocket.pdb
REMARK  266 active torsions:
REMARK  status: ('A' for Active; 'I' for Inactive)
REMARK    1  A    between atoms: _1  and  _3
REMARK    2  A    between atoms: _3  and  _4
REMARK    3  A    between atoms: _3  and  _6
REMARK    4  A    between atoms: _6  and  _7
REMARK    5  A    between atoms: _10  and  _12
REMARK    6  A    between atoms: _12  and  _13
REMARK    7  A    between atoms: _12  and  _15
REMARK    8  A    between atoms: _15  and  _16
REMARK    9  A    between atoms: _19  and  _21
REMARK   10  A    between atoms: _21  and  _22
REMARK   11  A    between atoms: _24  and  _26
REMARK   12  A    between atoms: _26  and  _27
REMARK   13  A    between atoms: _26  and  _29
REMARK   14  A    between atoms: _29  and  _30
REMARK   15  A    between atoms: _30  and  _31
REMARK   16  A    between atoms: _34  and  _36
REMARK   17  A    between atoms: _36  and  _37
REMARK   18  A    between atoms: _36  and  _39
REMARK   19  A    between atoms: _39  and  _40
REMARK   20  A    between atoms: _44  and  _45
REMARK   21  A    between atoms: _50  and  _52
REMARK   22  A    between atoms: _52  and  _53
REMARK   23  A    between atoms: _52  and  _55
REMARK   24  A    between atoms: _55  and  _56
REMARK   25  A    between atoms: _59  and  _61
REMARK   26  A    between atoms: _61  and  _62
REMARK   27  A    between atoms: _61  and  _64
REMARK   28  A    between atoms: _67  and  _69
REMARK   29  A    between atoms: _69  and  _70
REMARK   30  A    between atoms: _73  and  _75
REMARK   31  A    between atoms: _75  and  _76
REMARK   32  A    between atoms: _75  and  _78
REMARK   33  A    between atoms: _78  and  _79
REMARK   34  A    between atoms: _82  and  _84
REMARK   35  A    between atoms: _84  and  _85
REMARK   36  A    between atoms: _84  and  _87
REMARK   37  A    between atoms: _87  and  _88
REMARK   38  A    between atoms: _88  and  _89
REMARK   39  A    between atoms: _89  and  _90
REMARK   40  A    between atoms: _99  and  _101
REMARK   41  A    between atoms: _101  and  _102
REMARK   42  A    between atoms: _101  and  _104
REMARK   43  A    between atoms: _104  and  _105
REMARK   44  A    between atoms: _108  and  _110
REMARK   45  A    between atoms: _110  and  _111
REMARK   46  A    between atoms: _110  and  _113
REMARK   47  A    between atoms: _113  and  _114
REMARK   48  A    between atoms: _120  and  _122
REMARK   49  A    between atoms: _122  and  _123
REMARK   50  A    between atoms: _122  and  _125
REMARK   51  A    between atoms: _125  and  _126
REMARK   52  A    between atoms: _126  and  _127
REMARK   53  A    between atoms: _132  and  _134
REMARK   54  A    between atoms: _134  and  _135
REMARK   55  A    between atoms: _137  and  _139
REMARK   56  A    between atoms: _139  and  _140
REMARK   57  A    between atoms: _139  and  _142
REMARK   58  A    between atoms: _144  and  _146
REMARK   59  A    between atoms: _146  and  _147
REMARK   60  A    between atoms: _146  and  _149
REMARK   61  A    between atoms: _149  and  _150
REMARK   62  A    between atoms: _150  and  _151
REMARK   63  A    between atoms: _156  and  _158
REMARK   64  A    between atoms: _158  and  _159
REMARK   65  A    between atoms: _158  and  _161
REMARK   66  A    between atoms: _161  and  _162
REMARK   67  A    between atoms: _168  and  _170
REMARK   68  A    between atoms: _170  and  _171
REMARK   69  A    between atoms: _170  and  _173
REMARK   70  A    between atoms: _173  and  _174
REMARK   71  A    between atoms: _174  and  _175
REMARK   72  A    between atoms: _175  and  _176
REMARK   73  A    between atoms: _185  and  _187
REMARK   74  A    between atoms: _187  and  _188
REMARK   75  A    between atoms: _187  and  _190
REMARK   76  A    between atoms: _190  and  _191
REMARK   77  A    between atoms: _193  and  _195
REMARK   78  A    between atoms: _195  and  _196
REMARK   79  A    between atoms: _195  and  _198
REMARK   80  A    between atoms: _201  and  _203
REMARK   81  A    between atoms: _203  and  _204
REMARK   82  A    between atoms: _203  and  _206
REMARK   83  A    between atoms: _206  and  _207
REMARK   84  A    between atoms: _207  and  _208
REMARK   85  A    between atoms: _211  and  _213
REMARK   86  A    between atoms: _213  and  _214
REMARK   87  A    between atoms: _217  and  _219
REMARK   88  A    between atoms: _219  and  _220
REMARK   89  A    between atoms: _219  and  _222
REMARK   90  A    between atoms: _225  and  _227
REMARK   91  A    between atoms: _227  and  _228
REMARK   92  A    between atoms: _227  and  _230
REMARK   93  A    between atoms: _233  and  _235
REMARK   94  A    between atoms: _235  and  _236
REMARK   95  A    between atoms: _235  and  _238
REMARK   96  A    between atoms: _238  and  _239
REMARK   97  A    between atoms: _244  and  _246
REMARK   98  A    between atoms: _246  and  _247
REMARK   99  A    between atoms: _246  and  _249
REMARK  100  A    between atoms: _249  and  _250
REMARK  101  A    between atoms: _253  and  _255
REMARK  102  A    between atoms: _255  and  _256
REMARK  103  A    between atoms: _255  and  _258
REMARK  104  A    between atoms: _258  and  _259
REMARK  105  A    between atoms: _264  and  _265
REMARK  106  A    between atoms: _267  and  _269
REMARK  107  A    between atoms: _269  and  _270
REMARK  108  A    between atoms: _269  and  _272
REMARK  109  A    between atoms: _272  and  _273
REMARK  110  A    between atoms: _276  and  _278
REMARK  111  A    between atoms: _278  and  _279
REMARK  112  A    between atoms: _278  and  _281
REMARK  113  A    between atoms: _281  and  _282
REMARK  114  A    between atoms: _285  and  _287
REMARK  115  A    between atoms: _287  and  _288
REMARK  116  A    between atoms: _287  and  _290
REMARK  117  A    between atoms: _290  and  _291
REMARK  118  A    between atoms: _291  and  _292
REMARK  119  A    between atoms: _294  and  _296
REMARK  120  A    between atoms: _296  and  _297
REMARK  121  A    between atoms: _296  and  _299
REMARK  122  A    between atoms: _302  and  _304
REMARK  123  A    between atoms: _304  and  _305
REMARK  124  A    between atoms: _304  and  _307
REMARK  125  A    between atoms: _307  and  _308
REMARK  126  A    between atoms: _311  and  _313
REMARK  127  A    between atoms: _313  and  _314
REMARK  128  A    between atoms: _313  and  _316
REMARK  129  A    between atoms: _316  and  _317
REMARK  130  A    between atoms: _320  and  _322
REMARK  131  A    between atoms: _322  and  _323
REMARK  132  A    between atoms: _322  and  _325
REMARK  133  A    between atoms: _325  and  _326
REMARK  134  A    between atoms: _328  and  _330
REMARK  135  A    between atoms: _330  and  _331
REMARK  136  A    between atoms: _330  and  _333
REMARK  137  A    between atoms: _333  and  _334
REMARK  138  A    between atoms: _334  and  _335
REMARK  139  A    between atoms: _338  and  _340
REMARK  140  A    between atoms: _340  and  _341
REMARK  141  A    between atoms: _343  and  _345
REMARK  142  A    between atoms: _345  and  _346
REMARK  143  A    between atoms: _348  and  _350
REMARK  144  A    between atoms: _350  and  _351
REMARK  145  A    between atoms: _350  and  _353
REMARK  146  A    between atoms: _353  and  _354
REMARK  147  A    between atoms: _354  and  _355
REMARK  148  A    between atoms: _357  and  _359
REMARK  149  A    between atoms: _359  and  _360
REMARK  150  A    between atoms: _359  and  _362
REMARK  151  A    between atoms: _362  and  _363
REMARK  152  A    between atoms: _366  and  _368
REMARK  153  A    between atoms: _368  and  _369
REMARK  154  A    between atoms: _368  and  _371
REMARK  155  A    between atoms: _371  and  _372
REMARK  156  A    between atoms: _378  and  _380
REMARK  157  A    between atoms: _380  and  _381
REMARK  158  A    between atoms: _380  and  _383
REMARK  159  A    between atoms: _383  and  _384
REMARK  160  A    between atoms: _387  and  _389
REMARK  161  A    between atoms: _389  and  _390
REMARK  162  A    between atoms: _389  and  _392
REMARK  163  A    between atoms: _392  and  _393
REMARK  164  A    between atoms: _396  and  _398
REMARK  165  A    between atoms: _398  and  _399
REMARK  166  A    between atoms: _398  and  _401
REMARK  167  A    between atoms: _401  and  _402
REMARK  168  A    between atoms: _402  and  _403
REMARK  169  A    between atoms: _403  and  _404
REMARK  170  A    between atoms: _414  and  _415
REMARK  171  A    between atoms: _420  and  _422
REMARK  172  A    between atoms: _422  and  _423
REMARK  173  A    between atoms: _422  and  _425
REMARK  174  A    between atoms: _425  and  _426
REMARK  175  A    between atoms: _432  and  _434
REMARK  176  A    between atoms: _434  and  _435
REMARK  177  A    between atoms: _437  and  _439
REMARK  178  A    between atoms: _439  and  _440
REMARK  179  A    between atoms: _439  and  _442
REMARK  180  A    between atoms: _442  and  _443
REMARK  181  A    between atoms: _446  and  _448
REMARK  182  A    between atoms: _448  and  _449
REMARK  183  A    between atoms: _448  and  _451
REMARK  184  A    between atoms: _451  and  _452
REMARK  185  A    between atoms: _458  and  _460
REMARK  186  A    between atoms: _460  and  _461
REMARK  187  A    between atoms: _460  and  _463
REMARK  188  A    between atoms: _463  and  _464
REMARK  189  A    between atoms: _464  and  _465
REMARK  190  A    between atoms: _467  and  _469
REMARK  191  A    between atoms: _469  and  _470
REMARK  192  A    between atoms: _469  and  _472
REMARK  193  A    between atoms: _472  and  _473
REMARK  194  A    between atoms: _473  and  _474
REMARK  195  A    between atoms: _477  and  _479
REMARK  196  A    between atoms: _479  and  _480
REMARK  197  A    between atoms: _479  and  _482
REMARK  198  A    between atoms: _482  and  _483
REMARK  199  A    between atoms: _483  and  _484
REMARK  200  A    between atoms: _484  and  _485
REMARK  201  A    between atoms: _485  and  _486
REMARK  202  A    between atoms: _490  and  _492
REMARK  203  A    between atoms: _492  and  _493
REMARK  204  A    between atoms: _492  and  _495
REMARK  205  A    between atoms: _495  and  _496
REMARK  206  A    between atoms: _502  and  _504
REMARK  207  A    between atoms: _504  and  _505
REMARK  208  A    between atoms: _504  and  _507
REMARK  209  A    between atoms: _510  and  _512
REMARK  210  A    between atoms: _512  and  _513
REMARK  211  A    between atoms: _512  and  _515
REMARK  212  A    between atoms: _515  and  _516
REMARK  213  A    between atoms: _521  and  _523
REMARK  214  A    between atoms: _523  and  _524
REMARK  215  A    between atoms: _523  and  _526
REMARK  216  A    between atoms: _529  and  _531
REMARK  217  A    between atoms: _531  and  _532
REMARK  218  A    between atoms: _531  and  _534
REMARK  219  A    between atoms: _534  and  _535
REMARK  220  A    between atoms: _538  and  _540
REMARK  221  A    between atoms: _540  and  _541
REMARK  222  A    between atoms: _540  and  _543
REMARK  223  A    between atoms: _543  and  _544
REMARK  224  A    between atoms: _547  and  _549
REMARK  225  A    between atoms: _549  and  _550
REMARK  226  A    between atoms: _549  and  _552
REMARK  227  A    between atoms: _552  and  _553
REMARK  228  A    between atoms: _556  and  _558
REMARK  229  A    between atoms: _558  and  _559
REMARK  230  A    between atoms: _558  and  _561
REMARK  231  A    between atoms: _561  and  _562
REMARK  232  A    between atoms: _562  and  _563
REMARK  233  A    between atoms: _565  and  _567
REMARK  234  A    between atoms: _567  and  _568
REMARK  235  A    between atoms: _567  and  _570
REMARK  236  A    between atoms: _570  and  _571
REMARK  237  A    between atoms: _573  and  _575
REMARK  238  A    between atoms: _575  and  _576
REMARK  239  A    between atoms: _575  and  _578
REMARK  240  A    between atoms: _578  and  _579
REMARK  241  A    between atoms: _582  and  _584
REMARK  242  A    between atoms: _584  and  _585
REMARK  243  A    between atoms: _584  and  _587
REMARK  244  A    between atoms: _587  and  _588
REMARK  245  A    between atoms: _593  and  _595
REMARK  246  A    between atoms: _595  and  _596
REMARK  247  A    between atoms: _595  and  _598
REMARK  248  A    between atoms: _598  and  _599
REMARK  249  A    between atoms: _602  and  _604
REMARK  250  A    between atoms: _604  and  _605
REMARK  251  A    between atoms: _604  and  _607
REMARK  252  A    between atoms: _607  and  _608
REMARK  253  A    between atoms: _611  and  _613
REMARK  254  A    between atoms: _613  and  _614
REMARK  255  A    between atoms: _613  and  _616
REMARK  256  A    between atoms: _616  and  _617
REMARK  257  A    between atoms: _617  and  _618
REMARK  258  A    between atoms: _623  and  _625
REMARK  259  A    between atoms: _625  and  _626
REMARK  260  A    between atoms: _625  and  _628
REMARK  261  A    between atoms: _628  and  _629
REMARK  262  A    between atoms: _632  and  _634
REMARK  263  A    between atoms: _634  and  _635
REMARK  264  A    between atoms: _634  and  _637
REMARK  265  A    between atoms: _637  and  _638
REMARK  266  A    between atoms: _643  and  _644
REMARK                            x       y       z     vdW  Elec       q    Type
REMARK                         _______ _______ _______ _____ _____    ______ ____
ROOT
ATOM      1  O   HOH     1      11.337   2.815   4.208  0.00  0.00    +0.000 OA
ENDROOT
TORSDOF 0
REMARK  Name = ../refined-set-2016/1fm9/1fm9_pocket.pdb
REMARK  266 active torsions:
REMARK  status: ('A' for Active; 'I' for Inactive)
REMARK    1  A    between atoms: _1  and  _3
REMARK    2  A    between atoms: _3  and  _4
REMARK    3  A    between atoms: _3  and  _6
REMARK    4  A    between atoms: _6  and  _7
REMARK    5  A    between atoms: _10  and  _12
REMARK    6  A    between atoms: _12  and  _13
REMARK    7  A    between atoms: _12  and  _15
REMARK    8  A    between atoms: _15  and  _16
REMARK    9  A    between atoms: _19  and  _21
REMARK   10  A    between atoms: _21  and  _22
REMARK   11  A    between atoms: _24  and  _26
REMARK   12  A    between atoms: _26  and  _27
REMARK   13  A    between atoms: _26  and  _29
REMARK   14  A    between atoms: _29  and  _30
REMARK   15  A    between atoms: _30  and  _31
REMARK   16  A    between atoms: _34  and  _36
REMARK   17  A    between atoms: _36  and  _37
REMARK   18  A    between atoms: _36  and  _39
REMARK   19  A    between atoms: _39  and  _40
REMARK   20  A    between atoms: _44  and  _45
REMARK   21  A    between atoms: _50  and  _52
REMARK   22  A    between atoms: _52  and  _53
REMARK   23  A    between atoms: _52  and  _55
REMARK   24  A    between atoms: _55  and  _56
REMARK   25  A    between atoms: _59  and  _61
REMARK   26  A    between atoms: _61  and  _62
REMARK   27  A    between atoms: _61  and  _64
REMARK   28  A    between atoms: _67  and  _69
REMARK   29  A    between atoms: _69  and  _70
REMARK   30  A    between atoms: _73  and  _75
REMARK   31  A    between atoms: _75  and  _76
REMARK   32  A    between atoms: _75  and  _78
REMARK   33  A    between atoms: _78  and  _79
REMARK   34  A    between atoms: _82  and  _84
REMARK   35  A    between atoms: _84  and  _85
REMARK   36  A    between atoms: _84  and  _87
REMARK   37  A    between atoms: _87  and  _88
REMARK   38  A    between atoms: _88  and  _89
REMARK   39  A    between atoms: _89  and  _90
REMARK   40  A    between atoms: _99  and  _101
REMARK   41  A    between atoms: _101  and  _102
REMARK   42  A    between atoms: _101  and  _104
REMARK   43  A    between atoms: _104  and  _105
REMARK   44  A    between atoms: _108  and  _110
REMARK   45  A    between atoms: _110  and  _111
REMARK   46  A    between atoms: _110  and  _113
REMARK   47  A    between atoms: _113  and  _114
REMARK   48  A    between atoms: _120  and  _122
REMARK   49  A    between atoms: _122  and  _123
REMARK   50  A    between atoms: _122  and  _125
REMARK   51  A    between atoms: _125  and  _126
REMARK   52  A    between atoms: _126  and  _127
REMARK   53  A    between atoms: _132  and  _134
REMARK   54  A    between atoms: _134  and  _135
REMARK   55  A    between atoms: _137  and  _139
REMARK   56  A    between atoms: _139  and  _140
REMARK   57  A    between atoms: _139  and  _142
REMARK   58  A    between atoms: _144  and  _146
REMARK   59  A    between atoms: _146  and  _147
REMARK   60  A    between atoms: _146  and  _149
REMARK   61  A    between atoms: _149  and  _150
REMARK   62  A    between atoms: _150  and  _151
REMARK   63  A    between atoms: _156  and  _158
REMARK   64  A    between atoms: _158  and  _159
REMARK   65  A    between atoms: _158  and  _161
REMARK   66  A    between atoms: _161  and  _162
REMARK   67  A    between atoms: _168  and  _170
REMARK   68  A    between atoms: _170  and  _171
REMARK   69  A    between atoms: _170  and  _173
REMARK   70  A    between atoms: _173  and  _174
REMARK   71  A    between atoms: _174  and  _175
REMARK   72  A    between atoms: _175  and  _176
REMARK   73  A    between atoms: _185  and  _187
REMARK   74  A    between atoms: _187  and  _188
REMARK   75  A    between atoms: _187  and  _190
REMARK   76  A    between atoms: _190  and  _191
REMARK   77  A    between atoms: _193  and  _195
REMARK   78  A    between atoms: _195  and  _196
REMARK   79  A    between atoms: _195  and  _198
REMARK   80  A    between atoms: _201  and  _203
REMARK   81  A    between atoms: _203  and  _204
REMARK   82  A    between atoms: _203  and  _206
REMARK   83  A    between atoms: _206  and  _207
REMARK   84  A    between atoms: _207  and  _208
REMARK   85  A    between atoms: _211  and  _213
REMARK   86  A    between atoms: _213  and  _214
REMARK   87  A    between atoms: _217  and  _219
REMARK   88  A    between atoms: _219  and  _220
REMARK   89  A    between atoms: _219  and  _222
REMARK   90  A    between atoms: _225  and  _227
REMARK   91  A    between atoms: _227  and  _228
REMARK   92  A    between atoms: _227  and  _230
REMARK   93  A    between atoms: _233  and  _235
REMARK   94  A    between atoms: _235  and  _236
REMARK   95  A    between atoms: _235  and  _238
REMARK   96  A    between atoms: _238  and  _239
REMARK   97  A    between atoms: _244  and  _246
REMARK   98  A    between atoms: _246  and  _247
REMARK   99  A    between atoms: _246  and  _249
REMARK  100  A    between atoms: _249  and  _250
REMARK  101  A    between atoms: _253  and  _255
REMARK  102  A    between atoms: _255  and  _256
REMARK  103  A    between atoms: _255  and  _258
REMARK  104  A    between atoms: _258  and  _259
REMARK  105  A    between atoms: _264  and  _265
REMARK  106  A    between atoms: _267  and  _269
REMARK  107  A    between atoms: _269  and  _270
REMARK  108  A    between atoms: _269  and  _272
REMARK  109  A    between atoms: _272  and  _273
REMARK  110  A    between atoms: _276  and  _278
REMARK  111  A    between atoms: _278  and  _279
REMARK  112  A    between atoms: _278  and  _281
REMARK  113  A    between atoms: _281  and  _282
REMARK  114  A    between atoms: _285  and  _287
REMARK  115  A    between atoms: _287  and  _288
REMARK  116  A    between atoms: _287  and  _290
REMARK  117  A    between atoms: _290  and  _291
REMARK  118  A    between atoms: _291  and  _292
REMARK  119  A    between atoms: _294  and  _296
REMARK  120  A    between atoms: _296  and  _297
REMARK  121  A    between atoms: _296  and  _299
REMARK  122  A    between atoms: _302  and  _304
REMARK  123  A    between atoms: _304  and  _305
REMARK  124  A    between atoms: _304  and  _307
REMARK  125  A    between atoms: _307  and  _308
REMARK  126  A    between atoms: _311  and  _313
REMARK  127  A    between atoms: _313  and  _314
REMARK  128  A    between atoms: _313  and  _316
REMARK  129  A    between atoms: _316  and  _317
REMARK  130  A    between atoms: _320  and  _322
REMARK  131  A    between atoms: _322  and  _323
REMARK  132  A    between atoms: _322  and  _325
REMARK  133  A    between atoms: _325  and  _326
REMARK  134  A    between atoms: _328  and  _330
REMARK  135  A    between atoms: _330  and  _331
REMARK  136  A    between atoms: _330  and  _333
REMARK  137  A    between atoms: _333  and  _334
REMARK  138  A    between atoms: _334  and  _335
REMARK  139  A    between atoms: _338  and  _340
REMARK  140  A    between atoms: _340  and  _341
REMARK  141  A    between atoms: _343  and  _345
REMARK  142  A    between atoms: _345  and  _346
REMARK  143  A    between atoms: _348  and  _350
REMARK  144  A    between atoms: _350  and  _351
REMARK  145  A    between atoms: _350  and  _353
REMARK  146  A    between atoms: _353  and  _354
REMARK  147  A    between atoms: _354  and  _355
REMARK  148  A    between atoms: _357  and  _359
REMARK  149  A    between atoms: _359  and  _360
REMARK  150  A    between atoms: _359  and  _362
REMARK  151  A    between atoms: _362  and  _363
REMARK  152  A    between atoms: _366  and  _368
REMARK  153  A    between atoms: _368  and  _369
REMARK  154  A    between atoms: _368  and  _371
REMARK  155  A    between atoms: _371  and  _372
REMARK  156  A    between atoms: _378  and  _380
REMARK  157  A    between atoms: _380  and  _381
REMARK  158  A    between atoms: _380  and  _383
REMARK  159  A    between atoms: _383  and  _384
REMARK  160  A    between atoms: _387  and  _389
REMARK  161  A    between atoms: _389  and  _390
REMARK  162  A    between atoms: _389  and  _392
REMARK  163  A    between atoms: _392  and  _393
REMARK  164  A    between atoms: _396  and  _398
REMARK  165  A    between atoms: _398  and  _399
REMARK  166  A    between atoms: _398  and  _401
REMARK  167  A    between atoms: _401  and  _402
REMARK  168  A    between atoms: _402  and  _403
REMARK  169  A    between atoms: _403  and  _404
REMARK  170  A    between atoms: _414  and  _415
REMARK  171  A    between atoms: _420  and  _422
REMARK  172  A    between atoms: _422  and  _423
REMARK  173  A    between atoms: _422  and  _425
REMARK  174  A    between atoms: _425  and  _426
REMARK  175  A    between atoms: _432  and  _434
REMARK  176  A    between atoms: _434  and  _435
REMARK  177  A    between atoms: _437  and  _439
REMARK  178  A    between atoms: _439  and  _440
REMARK  179  A    between atoms: _439  and  _442
REMARK  180  A    between atoms: _442  and  _443
REMARK  181  A    between atoms: _446  and  _448
REMARK  182  A    between atoms: _448  and  _449
REMARK  183  A    between atoms: _448  and  _451
REMARK  184  A    between atoms: _451  and  _452
REMARK  185  A    between atoms: _458  and  _460
REMARK  186  A    between atoms: _460  and  _461
REMARK  187  A    between atoms: _460  and  _463
REMARK  188  A    between atoms: _463  and  _464
REMARK  189  A    between atoms: _464  and  _465
REMARK  190  A    between atoms: _467  and  _469
REMARK  191  A    between atoms: _469  and  _470
REMARK  192  A    between atoms: _469  and  _472
REMARK  193  A    between atoms: _472  and  _473
REMARK  194  A    between atoms: _473  and  _474
REMARK  195  A    between atoms: _477  and  _479
REMARK  196  A    between atoms: _479  and  _480
REMARK  197  A    between atoms: _479  and  _482
REMARK  198  A    between atoms: _482  and  _483
REMARK  199  A    between atoms: _483  and  _484
REMARK  200  A    between atoms: _484  and  _485
REMARK  201  A    between atoms: _485  and  _486
REMARK  202  A    between atoms: _490  and  _492
REMARK  203  A    between atoms: _492  and  _493
REMARK  204  A    between atoms: _492  and  _495
REMARK  205  A    between atoms: _495  and  _496
REMARK  206  A    between atoms: _502  and  _504
REMARK  207  A    between atoms: _504  and  _505
REMARK  208  A    between atoms: _504  and  _507
REMARK  209  A    between atoms: _510  and  _512
REMARK  210  A    between atoms: _512  and  _513
REMARK  211  A    between atoms: _512  and  _515
REMARK  212  A    between atoms: _515  and  _516
REMARK  213  A    between atoms: _521  and  _523
REMARK  214  A    between atoms: _523  and  _524
REMARK  215  A    between atoms: _523  and  _526
REMARK  216  A    between atoms: _529  and  _531
REMARK  217  A    between atoms: _531  and  _532
REMARK  218  A    between atoms: _531  and  _534
REMARK  219  A    between atoms: _534  and  _535
REMARK  220  A    between atoms: _538  and  _540
REMARK  221  A    between atoms: _540  and  _541
REMARK  222  A    between atoms: _540  and  _543
REMARK  223  A    between atoms: _543  and  _544
REMARK  224  A    between atoms: _547  and  _549
REMARK  225  A    between atoms: _549  and  _550
REMARK  226  A    between atoms: _549  and  _552
REMARK  227  A    between atoms: _552  and  _553
REMARK  228  A    between atoms: _556  and  _558
REMARK  229  A    between atoms: _558  and  _559
REMARK  230  A    between atoms: _558  and  _561
REMARK  231  A    between atoms: _561  and  _562
REMARK  232  A    between atoms: _562  and  _563
REMARK  233  A    between atoms: _565  and  _567
REMARK  234  A    between atoms: _567  and  _568
REMARK  235  A    between atoms: _567  and  _570
REMARK  236  A    between atoms: _570  and  _571
REMARK  237  A    between atoms: _573  and  _575
REMARK  238  A    between atoms: _575  and  _576
REMARK  239  A    between atoms: _575  and  _578
REMARK  240  A    between atoms: _578  and  _579
REMARK  241  A    between atoms: _582  and  _584
REMARK  242  A    between atoms: _584  and  _585
REMARK  243  A    between atoms: _584  and  _587
REMARK  244  A    between atoms: _587  and  _588
REMARK  245  A    between atoms: _593  and  _595
REMARK  246  A    between atoms: _595  and  _596
REMARK  247  A    between atoms: _595  and  _598
REMARK  248  A    between atoms: _598  and  _599
REMARK  249  A    between atoms: _602  and  _604
REMARK  250  A    between atoms: _604  and  _605
REMARK  251  A    between atoms: _604  and  _607
REMARK  252  A    between atoms: _607  and  _608
REMARK  253  A    between atoms: _611  and  _613
REMARK  254  A    between atoms: _613  and  _614
REMARK  255  A    between atoms: _613  and  _616
REMARK  256  A    between atoms: _616  and  _617
REMARK  257  A    between atoms: _617  and  _618
REMARK  258  A    between atoms: _623  and  _625
REMARK  259  A    between atoms: _625  and  _626
REMARK  260  A    between atoms: _625  and  _628
REMARK  261  A    between atoms: _628  and  _629
REMARK  262  A    between atoms: _632  and  _634
REMARK  263  A    between atoms: _634  and  _635
REMARK  264  A    between atoms: _634  and  _637
REMARK  265  A    between atoms: _637  and  _638
REMARK  266  A    between atoms: _643  and  _644
REMARK                            x       y       z     vdW  Elec       q    Type
REMARK                         _______ _______ _______ _____ _____    ______ ____
ROOT
ATOM      1  O   HOH     1      21.485  -6.783   4.384  0.00  0.00    +0.000 OA
ENDROOT
TORSDOF 0
REMARK  Name = ../refined-set-2016/1fm9/1fm9_pocket.pdb
REMARK  266 active torsions:
REMARK  status: ('A' for Active; 'I' for Inactive)
REMARK    1  A    between atoms: _1  and  _3
REMARK    2  A    between atoms: _3  and  _4
REMARK    3  A    between atoms: _3  and  _6
REMARK    4  A    between atoms: _6  and  _7
REMARK    5  A    between atoms: _10  and  _12
REMARK    6  A    between atoms: _12  and  _13
REMARK    7  A    between atoms: _12  and  _15
REMARK    8  A    between atoms: _15  and  _16
REMARK    9  A    between atoms: _19  and  _21
REMARK   10  A    between atoms: _21  and  _22
REMARK   11  A    between atoms: _24  and  _26
REMARK   12  A    between atoms: _26  and  _27
REMARK   13  A    between atoms: _26  and  _29
REMARK   14  A    between atoms: _29  and  _30
REMARK   15  A    between atoms: _30  and  _31
REMARK   16  A    between atoms: _34  and  _36
REMARK   17  A    between atoms: _36  and  _37
REMARK   18  A    between atoms: _36  and  _39
REMARK   19  A    between atoms: _39  and  _40
REMARK   20  A    between atoms: _44  and  _45
REMARK   21  A    between atoms: _50  and  _52
REMARK   22  A    between atoms: _52  and  _53
REMARK   23  A    between atoms: _52  and  _55
REMARK   24  A    between atoms: _55  and  _56
REMARK   25  A    between atoms: _59  and  _61
REMARK   26  A    between atoms: _61  and  _62
REMARK   27  A    between atoms: _61  and  _64
REMARK   28  A    between atoms: _67  and  _69
REMARK   29  A    between atoms: _69  and  _70
REMARK   30  A    between atoms: _73  and  _75
REMARK   31  A    between atoms: _75  and  _76
REMARK   32  A    between atoms: _75  and  _78
REMARK   33  A    between atoms: _78  and  _79
REMARK   34  A    between atoms: _82  and  _84
REMARK   35  A    between atoms: _84  and  _85
REMARK   36  A    between atoms: _84  and  _87
REMARK   37  A    between atoms: _87  and  _88
REMARK   38  A    between atoms: _88  and  _89
REMARK   39  A    between atoms: _89  and  _90
REMARK   40  A    between atoms: _99  and  _101
REMARK   41  A    between atoms: _101  and  _102
REMARK   42  A    between atoms: _101  and  _104
REMARK   43  A    between atoms: _104  and  _105
REMARK   44  A    between atoms: _108  and  _110
REMARK   45  A    between atoms: _110  and  _111
REMARK   46  A    between atoms: _110  and  _113
REMARK   47  A    between atoms: _113  and  _114
REMARK   48  A    between atoms: _120  and  _122
REMARK   49  A    between atoms: _122  and  _123
REMARK   50  A    between atoms: _122  and  _125
REMARK   51  A    between atoms: _125  and  _126
REMARK   52  A    between atoms: _126  and  _127
REMARK   53  A    between atoms: _132  and  _134
REMARK   54  A    between atoms: _134  and  _135
REMARK   55  A    between atoms: _137  and  _139
REMARK   56  A    between atoms: _139  and  _140
REMARK   57  A    between atoms: _139  and  _142
REMARK   58  A    between atoms: _144  and  _146
REMARK   59  A    between atoms: _146  and  _147
REMARK   60  A    between atoms: _146  and  _149
REMARK   61  A    between atoms: _149  and  _150
REMARK   62  A    between atoms: _150  and  _151
REMARK   63  A    between atoms: _156  and  _158
REMARK   64  A    between atoms: _158  and  _159
REMARK   65  A    between atoms: _158  and  _161
REMARK   66  A    between atoms: _161  and  _162
REMARK   67  A    between atoms: _168  and  _170
REMARK   68  A    between atoms: _170  and  _171
REMARK   69  A    between atoms: _170  and  _173
REMARK   70  A    between atoms: _173  and  _174
REMARK   71  A    between atoms: _174  and  _175
REMARK   72  A    between atoms: _175  and  _176
REMARK   73  A    between atoms: _185  and  _187
REMARK   74  A    between atoms: _187  and  _188
REMARK   75  A    between atoms: _187  and  _190
REMARK   76  A    between atoms: _190  and  _191
REMARK   77  A    between atoms: _193  and  _195
REMARK   78  A    between atoms: _195  and  _196
REMARK   79  A    between atoms: _195  and  _198
REMARK   80  A    between atoms: _201  and  _203
REMARK   81  A    between atoms: _203  and  _204
REMARK   82  A    between atoms: _203  and  _206
REMARK   83  A    between atoms: _206  and  _207
REMARK   84  A    between atoms: _207  and  _208
REMARK   85  A    between atoms: _211  and  _213
REMARK   86  A    between atoms: _213  and  _214
REMARK   87  A    between atoms: _217  and  _219
REMARK   88  A    between atoms: _219  and  _220
REMARK   89  A    between atoms: _219  and  _222
REMARK   90  A    between atoms: _225  and  _227
REMARK   91  A    between atoms: _227  and  _228
REMARK   92  A    between atoms: _227  and  _230
REMARK   93  A    between atoms: _233  and  _235
REMARK   94  A    between atoms: _235  and  _236
REMARK   95  A    between atoms: _235  and  _238
REMARK   96  A    between atoms: _238  and  _239
REMARK   97  A    between atoms: _244  and  _246
REMARK   98  A    between atoms: _246  and  _247
REMARK   99  A    between atoms: _246  and  _249
REMARK  100  A    between atoms: _249  and  _250
REMARK  101  A    between atoms: _253  and  _255
REMARK  102  A    between atoms: _255  and  _256
REMARK  103  A    between atoms: _255  and  _258
REMARK  104  A    between atoms: _258  and  _259
REMARK  105  A    between atoms: _264  and  _265
REMARK  106  A    between atoms: _267  and  _269
REMARK  107  A    between atoms: _269  and  _270
REMARK  108  A    between atoms: _269  and  _272
REMARK  109  A    between atoms: _272  and  _273
REMARK  110  A    between atoms: _276  and  _278
REMARK  111  A    between atoms: _278  and  _279
REMARK  112  A    between atoms: _278  and  _281
REMARK  113  A    between atoms: _281  and  _282
REMARK  114  A    between atoms: _285  and  _287
REMARK  115  A    between atoms: _287  and  _288
REMARK  116  A    between atoms: _287  and  _290
REMARK  117  A    between atoms: _290  and  _291
REMARK  118  A    between atoms: _291  and  _292
REMARK  119  A    between atoms: _294  and  _296
REMARK  120  A    between atoms: _296  and  _297
REMARK  121  A    between atoms: _296  and  _299
REMARK  122  A    between atoms: _302  and  _304
REMARK  123  A    between atoms: _304  and  _305
REMARK  124  A    between atoms: _304  and  _307
REMARK  125  A    between atoms: _307  and  _308
REMARK  126  A    between atoms: _311  and  _313
REMARK  127  A    between atoms: _313  and  _314
REMARK  128  A    between atoms: _313  and  _316
REMARK  129  A    between atoms: _316  and  _317
REMARK  130  A    between atoms: _320  and  _322
REMARK  131  A    between atoms: _322  and  _323
REMARK  132  A    between atoms: _322  and  _325
REMARK  133  A    between atoms: _325  and  _326
REMARK  134  A    between atoms: _328  and  _330
REMARK  135  A    between atoms: _330  and  _331
REMARK  136  A    between atoms: _330  and  _333
REMARK  137  A    between atoms: _333  and  _334
REMARK  138  A    between atoms: _334  and  _335
REMARK  139  A    between atoms: _338  and  _340
REMARK  140  A    between atoms: _340  and  _341
REMARK  141  A    between atoms: _343  and  _345
REMARK  142  A    between atoms: _345  and  _346
REMARK  143  A    between atoms: _348  and  _350
REMARK  144  A    between atoms: _350  and  _351
REMARK  145  A    between atoms: _350  and  _353
REMARK  146  A    between atoms: _353  and  _354
REMARK  147  A    between atoms: _354  and  _355
REMARK  148  A    between atoms: _357  and  _359
REMARK  149  A    between atoms: _359  and  _360
REMARK  150  A    between atoms: _359  and  _362
REMARK  151  A    between atoms: _362  and  _363
REMARK  152  A    between atoms: _366  and  _368
REMARK  153  A    between atoms: _368  and  _369
REMARK  154  A    between atoms: _368  and  _371
REMARK  155  A    between atoms: _371  and  _372
REMARK  156  A    between atoms: _378  and  _380
REMARK  157  A    between atoms: _380  and  _381
REMARK  158  A    between atoms: _380  and  _383
REMARK  159  A    between atoms: _383  and  _384
REMARK  160  A    between atoms: _387  and  _389
REMARK  161  A    between atoms: _389  and  _390
REMARK  162  A    between atoms: _389  and  _392
REMARK  163  A    between atoms: _392  and  _393
REMARK  164  A    between atoms: _396  and  _398
REMARK  165  A    between atoms: _398  and  _399
REMARK  166  A    between atoms: _398  and  _401
REMARK  167  A    between atoms: _401  and  _402
REMARK  168  A    between atoms: _402  and  _403
REMARK  169  A    between atoms: _403  and  _404
REMARK  170  A    between atoms: _414  and  _415
REMARK  171  A    between atoms: _420  and  _422
REMARK  172  A    between atoms: _422  and  _423
REMARK  173  A    between atoms: _422  and  _425
REMARK  174  A    between atoms: _425  and  _426
REMARK  175  A    between atoms: _432  and  _434
REMARK  176  A    between atoms: _434  and  _435
REMARK  177  A    between atoms: _437  and  _439
REMARK  178  A    between atoms: _439  and  _440
REMARK  179  A    between atoms: _439  and  _442
REMARK  180  A    between atoms: _442  and  _443
REMARK  181  A    between atoms: _446  and  _448
REMARK  182  A    between atoms: _448  and  _449
REMARK  183  A    between atoms: _448  and  _451
REMARK  184  A    between atoms: _451  and  _452
REMARK  185  A    between atoms: _458  and  _460
REMARK  186  A    between atoms: _460  and  _461
REMARK  187  A    between atoms: _460  and  _463
REMARK  188  A    between atoms: _463  and  _464
REMARK  189  A    between atoms: _464  and  _465
REMARK  190  A    between atoms: _467  and  _469
REMARK  191  A    between atoms: _469  and  _470
REMARK  192  A    between atoms: _469  and  _472
REMARK  193  A    between atoms: _472  and  _473
REMARK  194  A    between atoms: _473  and  _474
REMARK  195  A    between atoms: _477  and  _479
REMARK  196  A    between atoms: _479  and  _480
REMARK  197  A    between atoms: _479  and  _482
REMARK  198  A    between atoms: _482  and  _483
REMARK  199  A    between atoms: _483  and  _484
REMARK  200  A    between atoms: _484  and  _485
REMARK  201  A    between atoms: _485  and  _486
REMARK  202  A    between atoms: _490  and  _492
REMARK  203  A    between atoms: _492  and  _493
REMARK  204  A    between atoms: _492  and  _495
REMARK  205  A    between atoms: _495  and  _496
REMARK  206  A    between atoms: _502  and  _504
REMARK  207  A    between atoms: _504  and  _505
REMARK  208  A    between atoms: _504  and  _507
REMARK  209  A    between atoms: _510  and  _512
REMARK  210  A    between atoms: _512  and  _513
REMARK  211  A    between atoms: _512  and  _515
REMARK  212  A    between atoms: _515  and  _516
REMARK  213  A    between atoms: _521  and  _523
REMARK  214  A    between atoms: _523  and  _524
REMARK  215  A    between atoms: _523  and  _526
REMARK  216  A    between atoms: _529  and  _531
REMARK  217  A    between atoms: _531  and  _532
REMARK  218  A    between atoms: _531  and  _534
REMARK  219  A    between atoms: _534  and  _535
REMARK  220  A    between atoms: _538  and  _540
REMARK  221  A    between atoms: _540  and  _541
REMARK  222  A    between atoms: _540  and  _543
REMARK  223  A    between atoms: _543  and  _544
REMARK  224  A    between atoms: _547  and  _549
REMARK  225  A    between atoms: _549  and  _550
REMARK  226  A    between atoms: _549  and  _552
REMARK  227  A    between atoms: _552  and  _553
REMARK  228  A    between atoms: _556  and  _558
REMARK  229  A    between atoms: _558  and  _559
REMARK  230  A    between atoms: _558  and  _561
REMARK  231  A    between atoms: _561  and  _562
REMARK  232  A    between atoms: _562  and  _563
REMARK  233  A    between atoms: _565  and  _567
REMARK  234  A    between atoms: _567  and  _568
REMARK  235  A    between atoms: _567  and  _570
REMARK  236  A    between atoms: _570  and  _571
REMARK  237  A    between atoms: _573  and  _575
REMARK  238  A    between atoms: _575  and  _576
REMARK  239  A    between atoms: _575  and  _578
REMARK  240  A    between atoms: _578  and  _579
REMARK  241  A    between atoms: _582  and  _584
REMARK  242  A    between atoms: _584  and  _585
REMARK  243  A    between atoms: _584  and  _587
REMARK  244  A    between atoms: _587  and  _588
REMARK  245  A    between atoms: _593  and  _595
REMARK  246  A    between atoms: _595  and  _596
REMARK  247  A    between atoms: _595  and  _598
REMARK  248  A    between atoms: _598  and  _599
REMARK  249  A    between atoms: _602  and  _604
REMARK  250  A    between atoms: _604  and  _605
REMARK  251  A    between atoms: _604  and  _607
REMARK  252  A    between atoms: _607  and  _608
REMARK  253  A    between atoms: _611  and  _613
REMARK  254  A    between atoms: _613  and  _614
REMARK  255  A    between atoms: _613  and  _616
REMARK  256  A    between atoms: _616  and  _617
REMARK  257  A    between atoms: _617  and  _618
REMARK  258  A    between atoms: _623  and  _625
REMARK  259  A    between atoms: _625  and  _626
REMARK  260  A    between atoms: _625  and  _628
REMARK  261  A    between atoms: _628  and  _629
REMARK  262  A    between atoms: _632  and  _634
REMARK  263  A    between atoms: _634  and  _635
REMARK  264  A    between atoms: _634  and  _637
REMARK  265  A    between atoms: _637  and  _638
REMARK  266  A    between atoms: _643  and  _644
REMARK                            x       y       z     vdW  Elec       q    Type
REMARK                         _______ _______ _______ _____ _____    ______ ____
ROOT
ATOM      1  O   HOH     1       3.218 -10.640  12.385  0.00  0.00    +0.000 OA
ENDROOT
TORSDOF 0
