REMARK  Name = ../refined-set-2016/4bny/4bny_pocket.pdb
REMARK  199 active torsions:
REMARK  status: ('A' for Active; 'I' for Inactive)
REMARK    1  A    between atoms: _1  and  _3
REMARK    2  A    between atoms: _3  and  _4
REMARK    3  A    between atoms: _3  and  _6
REMARK    4  A    between atoms: _6  and  _7
REMARK    5  A    between atoms: _17  and  _19
REMARK    6  A    between atoms: _19  and  _20
REMARK    7  A    between atoms: _19  and  _22
REMARK    8  A    between atoms: _22  and  _23
REMARK    9  A    between atoms: _29  and  _31
REMARK   10  A    between atoms: _31  and  _32
REMARK   11  A    between atoms: _31  and  _34
REMARK   12  A    between atoms: _34  and  _35
REMARK   13  A    between atoms: _38  and  _40
REMARK   14  A    between atoms: _40  and  _41
REMARK   15  A    between atoms: _40  and  _43
REMARK   16  A    between atoms: _46  and  _48
REMARK   17  A    between atoms: _48  and  _49
REMARK   18  A    between atoms: _48  and  _51
REMARK   19  A    between atoms: _54  and  _56
REMARK   20  A    between atoms: _56  and  _57
REMARK   21  A    between atoms: _56  and  _59
REMARK   22  A    between atoms: _59  and  _60
REMARK   23  A    between atoms: _65  and  _67
REMARK   24  A    between atoms: _67  and  _68
REMARK   25  A    between atoms: _67  and  _70
REMARK   26  A    between atoms: _70  and  _71
REMARK   27  A    between atoms: _74  and  _76
REMARK   28  A    between atoms: _76  and  _77
REMARK   29  A    between atoms: _76  and  _79
REMARK   30  A    between atoms: _79  and  _80
REMARK   31  A    between atoms: _85  and  _87
REMARK   32  A    between atoms: _87  and  _88
REMARK   33  A    between atoms: _87  and  _90
REMARK   34  A    between atoms: _90  and  _91
REMARK   35  A    between atoms: _94  and  _96
REMARK   36  A    between atoms: _96  and  _97
REMARK   37  A    between atoms: _96  and  _99
REMARK   38  A    between atoms: _99  and  _100
REMARK   39  A    between atoms: _105  and  _107
REMARK   40  A    between atoms: _107  and  _108
REMARK   41  A    between atoms: _107  and  _110
REMARK   42  A    between atoms: _110  and  _111
REMARK   43  A    between atoms: _116  and  _117
REMARK   44  A    between atoms: _119  and  _121
REMARK   45  A    between atoms: _121  and  _122
REMARK   46  A    between atoms: _121  and  _124
REMARK   47  A    between atoms: _124  and  _125
REMARK   48  A    between atoms: _128  and  _130
REMARK   49  A    between atoms: _130  and  _131
REMARK   50  A    between atoms: _130  and  _133
REMARK   51  A    between atoms: _133  and  _134
REMARK   52  A    between atoms: _139  and  _141
REMARK   53  A    between atoms: _141  and  _142
REMARK   54  A    between atoms: _145  and  _147
REMARK   55  A    between atoms: _147  and  _148
REMARK   56  A    between atoms: _151  and  _153
REMARK   57  A    between atoms: _153  and  _154
REMARK   58  A    between atoms: _157  and  _159
REMARK   59  A    between atoms: _159  and  _160
REMARK   60  A    between atoms: _159  and  _162
REMARK   61  A    between atoms: _162  and  _163
REMARK   62  A    between atoms: _163  and  _164
REMARK   63  A    between atoms: _164  and  _165
REMARK   64  A    between atoms: _165  and  _166
REMARK   65  A    between atoms: _170  and  _172
REMARK   66  A    between atoms: _172  and  _173
REMARK   67  A    between atoms: _176  and  _178
REMARK   68  A    between atoms: _178  and  _179
REMARK   69  A    between atoms: _181  and  _183
REMARK   70  A    between atoms: _183  and  _184
REMARK   71  A    between atoms: _183  and  _186
REMARK   72  A    between atoms: _186  and  _187
REMARK   73  A    between atoms: _190  and  _192
REMARK   74  A    between atoms: _192  and  _193
REMARK   75  A    between atoms: _192  and  _195
REMARK   76  A    between atoms: _195  and  _196
REMARK   77  A    between atoms: _196  and  _197
REMARK   78  A    between atoms: _200  and  _202
REMARK   79  A    between atoms: _202  and  _203
REMARK   80  A    between atoms: _205  and  _207
REMARK   81  A    between atoms: _207  and  _208
REMARK   82  A    between atoms: _207  and  _210
REMARK   83  A    between atoms: _210  and  _211
REMARK   84  A    between atoms: _217  and  _219
REMARK   85  A    between atoms: _219  and  _220
REMARK   86  A    between atoms: _219  and  _222
REMARK   87  A    between atoms: _222  and  _223
REMARK   88  A    between atoms: _226  and  _228
REMARK   89  A    between atoms: _228  and  _229
REMARK   90  A    between atoms: _228  and  _231
REMARK   91  A    between atoms: _231  and  _232
REMARK   92  A    between atoms: _232  and  _233
REMARK   93  A    between atoms: _233  and  _234
REMARK   94  A    between atoms: _243  and  _245
REMARK   95  A    between atoms: _245  and  _246
REMARK   96  A    between atoms: _249  and  _251
REMARK   97  A    between atoms: _251  and  _252
REMARK   98  A    between atoms: _251  and  _254
REMARK   99  A    between atoms: _254  and  _255
REMARK  100  A    between atoms: _258  and  _260
REMARK  101  A    between atoms: _260  and  _261
REMARK  102  A    between atoms: _260  and  _263
REMARK  103  A    between atoms: _263  and  _264
REMARK  104  A    between atoms: _264  and  _265
REMARK  105  A    between atoms: _265  and  _266
REMARK  106  A    between atoms: _275  and  _277
REMARK  107  A    between atoms: _277  and  _278
REMARK  108  A    between atoms: _277  and  _280
REMARK  109  A    between atoms: _280  and  _281
REMARK  110  A    between atoms: _291  and  _293
REMARK  111  A    between atoms: _293  and  _294
REMARK  112  A    between atoms: _293  and  _296
REMARK  113  A    between atoms: _296  and  _297
REMARK  114  A    between atoms: _303  and  _305
REMARK  115  A    between atoms: _305  and  _306
REMARK  116  A    between atoms: _305  and  _308
REMARK  117  A    between atoms: _308  and  _309
REMARK  118  A    between atoms: _312  and  _314
REMARK  119  A    between atoms: _314  and  _315
REMARK  120  A    between atoms: _314  and  _317
REMARK  121  A    between atoms: _320  and  _322
REMARK  122  A    between atoms: _322  and  _323
REMARK  123  A    between atoms: _322  and  _325
REMARK  124  A    between atoms: _328  and  _330
REMARK  125  A    between atoms: _330  and  _331
REMARK  126  A    between atoms: _330  and  _333
REMARK  127  A    between atoms: _333  and  _334
REMARK  128  A    between atoms: _339  and  _341
REMARK  129  A    between atoms: _341  and  _342
REMARK  130  A    between atoms: _341  and  _344
REMARK  131  A    between atoms: _344  and  _345
REMARK  132  A    between atoms: _348  and  _350
REMARK  133  A    between atoms: _350  and  _351
REMARK  134  A    between atoms: _350  and  _353
REMARK  135  A    between atoms: _353  and  _354
REMARK  136  A    between atoms: _359  and  _361
REMARK  137  A    between atoms: _361  and  _362
REMARK  138  A    between atoms: _361  and  _364
REMARK  139  A    between atoms: _364  and  _365
REMARK  140  A    between atoms: _368  and  _370
REMARK  141  A    between atoms: _370  and  _371
REMARK  142  A    between atoms: _370  and  _373
REMARK  143  A    between atoms: _373  and  _374
REMARK  144  A    between atoms: _379  and  _381
REMARK  145  A    between atoms: _381  and  _382
REMARK  146  A    between atoms: _381  and  _384
REMARK  147  A    between atoms: _384  and  _385
REMARK  148  A    between atoms: _388  and  _390
REMARK  149  A    between atoms: _390  and  _391
REMARK  150  A    between atoms: _390  and  _393
REMARK  151  A    between atoms: _393  and  _394
REMARK  152  A    between atoms: _399  and  _401
REMARK  153  A    between atoms: _401  and  _402
REMARK  154  A    between atoms: _405  and  _407
REMARK  155  A    between atoms: _407  and  _408
REMARK  156  A    between atoms: _411  and  _413
REMARK  157  A    between atoms: _413  and  _414
REMARK  158  A    between atoms: _417  and  _419
REMARK  159  A    between atoms: _419  and  _420
REMARK  160  A    between atoms: _419  and  _422
REMARK  161  A    between atoms: _422  and  _423
REMARK  162  A    between atoms: _423  and  _424
REMARK  163  A    between atoms: _424  and  _425
REMARK  164  A    between atoms: _425  and  _426
REMARK  165  A    between atoms: _430  and  _432
REMARK  166  A    between atoms: _432  and  _433
REMARK  167  A    between atoms: _436  and  _438
REMARK  168  A    between atoms: _438  and  _439
REMARK  169  A    between atoms: _441  and  _443
REMARK  170  A    between atoms: _443  and  _444
REMARK  171  A    between atoms: _443  and  _446
REMARK  172  A    between atoms: _446  and  _447
REMARK  173  A    between atoms: _450  and  _452
REMARK  174  A    between atoms: _452  and  _453
REMARK  175  A    between atoms: _452  and  _455
REMARK  176  A    between atoms: _455  and  _456
REMARK  177  A    between atoms: _456  and  _457
REMARK  178  A    between atoms: _460  and  _462
REMARK  179  A    between atoms: _462  and  _463
REMARK  180  A    between atoms: _465  and  _467
REMARK  181  A    between atoms: _467  and  _468
REMARK  182  A    between atoms: _467  and  _470
REMARK  183  A    between atoms: _470  and  _471
REMARK  184  A    between atoms: _477  and  _479
REMARK  185  A    between atoms: _479  and  _480
REMARK  186  A    between atoms: _479  and  _482
REMARK  187  A    between atoms: _482  and  _483
REMARK  188  A    between atoms: _486  and  _488
REMARK  189  A    between atoms: _488  and  _489
REMARK  190  A    between atoms: _488  and  _491
REMARK  191  A    between atoms: _491  and  _492
REMARK  192  A    between atoms: _492  and  _493
REMARK  193  A    between atoms: _493  and  _494
REMARK  194  A    between atoms: _503  and  _505
REMARK  195  A    between atoms: _505  and  _506
REMARK  196  A    between atoms: _509  and  _511
REMARK  197  A    between atoms: _511  and  _512
REMARK  198  A    between atoms: _511  and  _514
REMARK  199  A    between atoms: _514  and  _515
REMARK                            x       y       z     vdW  Elec       q    Type
REMARK                         _______ _______ _______ _____ _____    ______ ____
ROOT
ATOM      1  C   VAL A   5       8.715  -7.400  36.817  0.00  0.00    +0.241 C 
ATOM      2  O   VAL A   5       8.096  -6.711  37.661  0.00  0.00    -0.273 OA
ATOM      3  N   ASN A   6       8.103  -8.033  35.836  0.00  0.00    -0.297 N 
ATOM      4  H   ASN A   6       8.672  -8.536  35.125  0.00  0.00    +0.150 HD
ENDROOT
BRANCH   3   5
ATOM      5  CA  ASN A   6       6.636  -8.047  35.720  0.00  0.00    +0.158 C 
BRANCH   5   6
ATOM      6  C   ASN A   6       6.011  -8.612  36.992  0.00  0.00    +0.241 C 
ATOM      7  O   ASN A   6       5.053  -8.031  37.562  0.00  0.00    -0.273 OA
ATOM      8  N   THR A   7       6.560  -9.718  37.464  0.00  0.00    -0.295 N 
ATOM      9  H   THR A   7       7.381 -10.122  36.970  0.00  0.00    +0.150 HD
BRANCH   8  10
ATOM     10  CA  THR A   7       6.052 -10.391  38.657  0.00  0.00    +0.176 C 
BRANCH  10  11
ATOM     11  C   THR A   7       6.229  -9.500  39.862  0.00  0.00    +0.243 C 
ATOM     12  O   THR A   7       5.285  -9.280  40.632  0.00  0.00    -0.273 OA
ATOM     13  N   ASN A   8       7.414  -8.964  40.045  0.00  0.00    -0.297 N 
ATOM     14  H   ASN A   8       8.161  -9.142  39.344  0.00  0.00    +0.150 HD
BRANCH  13  15
ATOM     15  CA  ASN A   8       7.713  -8.129  41.198  0.00  0.00    +0.158 C 
BRANCH  15  16
ATOM     16  C   ASN A   8       6.868  -6.864  41.234  0.00  0.00    +0.241 C 
ATOM     17  O   ASN A   8       6.372  -6.487  42.298  0.00  0.00    -0.273 OA
ATOM     18  N   LEU A   9       6.692  -6.200  40.092  0.00  0.00    -0.297 N 
ATOM     19  H   LEU A   9       7.123  -6.532  39.206  0.00  0.00    +0.150 HD
BRANCH  18  20
ATOM     20  CA  LEU A   9       5.870  -4.986  40.126  0.00  0.00    +0.149 C 
BRANCH  20  21
ATOM     21  C   LEU A   9       4.418  -5.307  40.339  0.00  0.00    +0.241 C 
ATOM     22  O   LEU A   9       3.694  -4.538  41.016  0.00  0.00    -0.273 OA
ATOM     23  N   ASN A  10       3.938  -6.384  39.756  0.00  0.00    -0.298 N 
ATOM     24  H   ASN A  10       4.551  -6.951  39.136  0.00  0.00    +0.150 HD
BRANCH  23  25
ATOM     25  CA  ASN A  10       2.557  -6.790  39.971  0.00  0.00    +0.146 C 
BRANCH  25  26
ATOM     26  C   ASN A  10       2.307  -7.077  41.425  0.00  0.00    +0.227 C 
ATOM     27  O   ASN A  10       1.270  -6.675  41.963  0.00  0.00    -0.286 OA
ENDBRANCH  25  26
BRANCH  25  28
ATOM     28  CB  ASN A  10       2.134  -7.937  39.046  0.00  0.00    +0.112 C 
BRANCH  28  29
ATOM     29  CG  ASN A  10       1.614  -7.419  37.702  0.00  0.00    +0.222 C 
ATOM     30  OD1 ASN A  10       0.459  -7.046  37.568  0.00  0.00    -0.275 OA
ATOM     31  ND2 ASN A  10       2.482  -7.316  36.724  0.00  0.00    -0.329 N 
ATOM     32 HD21 ASN A  10       3.461  -7.640  36.861  0.00  0.00    +0.145 HD
ATOM     33 HD22 ASN A  10       2.192  -6.910  35.812  0.00  0.00    +0.145 HD
ENDBRANCH  28  29
ENDBRANCH  25  28
ENDBRANCH  23  25
ENDBRANCH  20  21
BRANCH  20  34
ATOM     34  CB  LEU A   9       6.126  -4.069  38.903  0.00  0.00    +0.029 C 
BRANCH  34  35
ATOM     35  CG  LEU A   9       7.565  -3.530  38.834  0.00  0.00    +0.002 C 
ATOM     36  CD2 LEU A   9       7.926  -2.702  40.039  0.00  0.00    +0.000 C 
ATOM     37  CD1 LEU A   9       7.636  -2.670  37.608  0.00  0.00    +0.000 C 
ENDBRANCH  34  35
ENDBRANCH  20  34
ENDBRANCH  18  20
ENDBRANCH  15  16
BRANCH  15  38
ATOM     38  CB  ASN A   8       9.216  -7.838  41.336  0.00  0.00    +0.114 C 
BRANCH  38  39
ATOM     39  CG  ASN A   8       9.983  -9.041  41.881  0.00  0.00    +0.222 C 
ATOM     40  OD1 ASN A   8       9.383  -9.926  42.541  0.00  0.00    -0.275 OA
ATOM     41  ND2 ASN A   8      11.288  -9.130  41.566  0.00  0.00    -0.329 N 
ATOM     42 HD21 ASN A   8      11.841  -9.956  41.871  0.00  0.00    +0.145 HD
ATOM     43 HD22 ASN A   8      11.743  -8.373  41.017  0.00  0.00    +0.145 HD
ENDBRANCH  38  39
ENDBRANCH  15  38
ENDBRANCH  13  15
ENDBRANCH  10  11
BRANCH  10  44
ATOM     44  CB  THR A   7       6.754 -11.743  38.861  0.00  0.00    +0.137 C 
ATOM     45  CG2 THR A   7       6.253 -12.400  40.144  0.00  0.00    +0.034 C 
BRANCH  44  46
ATOM     46  OG1 THR A   7       6.484 -12.572  37.742  0.00  0.00    -0.382 OA
ATOM     47  HG1 THR A   7       6.825 -12.137  36.921  0.00  0.00    +0.210 HD
ENDBRANCH  44  46
ENDBRANCH  10  44
ENDBRANCH   8  10
ENDBRANCH   5   6
BRANCH   5  48
ATOM     48  CB  ASN A   6       6.238  -8.881  34.493  0.00  0.00    +0.114 C 
BRANCH  48  49
ATOM     49  CG  ASN A   6       4.723  -8.964  34.221  0.00  0.00    +0.222 C 
ATOM     50  OD1 ASN A   6       4.131 -10.049  34.279  0.00  0.00    -0.275 OA
ATOM     51  ND2 ASN A   6       4.145  -7.910  33.844  0.00  0.00    -0.329 N 
ATOM     52 HD21 ASN A   6       4.671  -7.014  33.806  0.00  0.00    +0.145 HD
ATOM     53 HD22 ASN A   6       3.142  -7.936  33.570  0.00  0.00    +0.145 HD
ENDBRANCH  48  49
ENDBRANCH   5  48
ENDBRANCH   3   5
BRANCH   1  54
ATOM     54  CA  VAL A   5      10.225  -7.394  36.791  0.00  0.00    +0.149 C 
BRANCH  54  57
ATOM     55  C   VAL A   4      10.475  -9.699  37.369  0.00  0.00    +0.241 C 
ATOM     56  O   VAL A   4       9.830  -9.522  38.437  0.00  0.00    -0.273 OA
ATOM     57  N   VAL A   5      10.702  -8.711  36.502  0.00  0.00    -0.297 N 
ATOM     58  H   VAL A   5      11.223  -8.897  35.621  0.00  0.00    +0.150 HD
BRANCH  55  59
ATOM     59  CA  VAL A   4      10.975 -11.081  36.975  0.00  0.00    +0.149 C 
BRANCH  59  62
ATOM     60  C   ASP A   3       9.321 -11.673  35.256  0.00  0.00    +0.241 C 
ATOM     61  O   ASP A   3       8.400 -11.501  36.065  0.00  0.00    -0.273 OA
ATOM     62  N   VAL A   4      10.598 -11.507  35.614  0.00  0.00    -0.297 N 
ATOM     63  H   VAL A   4      11.346 -11.683  34.914  0.00  0.00    +0.150 HD
BRANCH  60  64
ATOM     64  CA  ASP A   3       9.000 -12.016  33.765  0.00  0.00    +0.160 C 
BRANCH  64  67
ATOM     65  C   PHE A   2       9.927  -9.979  32.801  0.00  0.00    +0.241 C 
ATOM     66  O   PHE A   2       9.152  -9.277  33.499  0.00  0.00    -0.273 OA
ATOM     67  N   ASP A   3       9.914 -11.298  32.829  0.00  0.00    -0.297 N 
ATOM     68  H   ASP A   3      10.541 -11.838  32.199  0.00  0.00    +0.150 HD
BRANCH  65  69
ATOM     69  CA  PHE A   2      10.894  -9.347  31.776  0.00  0.00    +0.153 C 
BRANCH  69  72
ATOM     70  C   TRP A   1      12.909  -9.654  33.057  0.00  0.00    +0.239 C 
ATOM     71  O   TRP A   1      12.396  -9.054  33.994  0.00  0.00    -0.274 OA
ATOM     72  N   PHE A   2      12.250  -9.921  31.925  0.00  0.00    -0.297 N 
ATOM     73  H   PHE A   2      12.673 -10.509  31.179  0.00  0.00    +0.150 HD
BRANCH  70  74
ATOM     74  CA  TRP A   1      14.359 -10.103  33.179  0.00  0.00    +0.149 C 
BRANCH  74  75
ATOM     75  N   TRP A   1      14.543 -11.391  32.517  0.00  0.00    -0.238 NA
ATOM     76  H   TRP A   1      15.289 -11.493  31.800  0.00  0.00    +0.142 HD
ENDBRANCH  74  75
BRANCH  74  77
ATOM     77  CB  TRP A   1      15.280  -9.012  32.584  0.00  0.00    +0.054 C 
BRANCH  77  78
ATOM     78  CG  TRP A   1      15.083  -8.872  31.116  0.00  0.00    -0.002 A 
ATOM     79  CD2 TRP A   1      14.194  -7.975  30.433  0.00  0.00    +0.013 A 
ATOM     80  CE3 TRP A   1      13.318  -6.963  30.840  0.00  0.00    +0.001 A 
ATOM     81  CZ3 TRP A   1      12.636  -6.284  29.877  0.00  0.00    +0.000 A 
ATOM     82  CH2 TRP A   1      12.809  -6.545  28.548  0.00  0.00    +0.001 A 
ATOM     83  CZ2 TRP A   1      13.655  -7.499  28.111  0.00  0.00    +0.017 A 
ATOM     84  CE2 TRP A   1      14.358  -8.201  29.049  0.00  0.00    +0.056 A 
ATOM     85  NE1 TRP A   1      15.257  -9.225  28.878  0.00  0.00    -0.352 N 
ATOM     86  HE1 TRP A   1      15.539  -9.637  27.966  0.00  0.00    +0.166 HD
ATOM     87  CD1 TRP A   1      15.725  -9.618  30.118  0.00  0.00    +0.068 A 
ENDBRANCH  77  78
ENDBRANCH  74  77
ENDBRANCH  70  74
ENDBRANCH  69  72
BRANCH  69  88
ATOM     88  CB  PHE A   2      10.314  -9.509  30.362  0.00  0.00    +0.055 C 
BRANCH  88  89
ATOM     89  CG  PHE A   2       8.975  -8.818  30.202  0.00  0.00    -0.020 A 
ATOM     90  CD2 PHE A   2       7.790  -9.532  30.378  0.00  0.00    -0.004 A 
ATOM     91  CE2 PHE A   2       6.574  -8.869  30.296  0.00  0.00    -0.000 A 
ATOM     92  CZ  PHE A   2       6.528  -7.515  30.091  0.00  0.00    -0.000 A 
ATOM     93  CE1 PHE A   2       7.684  -6.810  29.987  0.00  0.00    -0.000 A 
ATOM     94  CD1 PHE A   2       8.905  -7.482  30.050  0.00  0.00    -0.004 A 
ENDBRANCH  88  89
ENDBRANCH  69  88
ENDBRANCH  65  69
ENDBRANCH  64  67
BRANCH  64  95
ATOM     95  CB  ASP A   3       8.914 -13.529  33.436  0.00  0.00    +0.143 C 
BRANCH  95  96
ATOM     96  CG  ASP A   3       8.306 -13.812  32.038  0.00  0.00    +0.367 C 
ATOM     97  OD2 ASP A   3       7.292 -13.222  31.612  0.00  0.00    -0.246 OA
ATOM     98  OD1 ASP A   3       8.854 -14.667  31.336  0.00  0.00    -0.246 OA
ENDBRANCH  95  96
ENDBRANCH  64  95
ENDBRANCH  60  64
ENDBRANCH  59  62
BRANCH  59  99
ATOM     99  CB  VAL A   4      12.500 -11.136  37.176  0.00  0.00    +0.027 C 
ATOM    100  CG2 VAL A   4      12.923 -10.485  38.492  0.00  0.00    +0.002 C 
ATOM    101  CG1 VAL A   4      12.929 -12.601  37.134  0.00  0.00    +0.002 C 
ENDBRANCH  59  99
ENDBRANCH  55  59
ENDBRANCH  54  57
BRANCH  54 102
ATOM    102  CB  VAL A   5      10.769  -6.340  35.821  0.00  0.00    +0.027 C 
ATOM    103  CG2 VAL A   5      10.204  -4.966  36.143  0.00  0.00    +0.002 C 
ATOM    104  CG1 VAL A   5      12.251  -6.289  35.963  0.00  0.00    +0.002 C 
ENDBRANCH  54 102
ENDBRANCH   1  54
TORSDOF 38
REMARK  Name = ../refined-set-2016/4bny/4bny_pocket.pdb
REMARK  199 active torsions:
REMARK  status: ('A' for Active; 'I' for Inactive)
REMARK    1  A    between atoms: _1  and  _3
REMARK    2  A    between atoms: _3  and  _4
REMARK    3  A    between atoms: _3  and  _6
REMARK    4  A    between atoms: _6  and  _7
REMARK    5  A    between atoms: _17  and  _19
REMARK    6  A    between atoms: _19  and  _20
REMARK    7  A    between atoms: _19  and  _22
REMARK    8  A    between atoms: _22  and  _23
REMARK    9  A    between atoms: _29  and  _31
REMARK   10  A    between atoms: _31  and  _32
REMARK   11  A    between atoms: _31  and  _34
REMARK   12  A    between atoms: _34  and  _35
REMARK   13  A    between atoms: _38  and  _40
REMARK   14  A    between atoms: _40  and  _41
REMARK   15  A    between atoms: _40  and  _43
REMARK   16  A    between atoms: _46  and  _48
REMARK   17  A    between atoms: _48  and  _49
REMARK   18  A    between atoms: _48  and  _51
REMARK   19  A    between atoms: _54  and  _56
REMARK   20  A    between atoms: _56  and  _57
REMARK   21  A    between atoms: _56  and  _59
REMARK   22  A    between atoms: _59  and  _60
REMARK   23  A    between atoms: _65  and  _67
REMARK   24  A    between atoms: _67  and  _68
REMARK   25  A    between atoms: _67  and  _70
REMARK   26  A    between atoms: _70  and  _71
REMARK   27  A    between atoms: _74  and  _76
REMARK   28  A    between atoms: _76  and  _77
REMARK   29  A    between atoms: _76  and  _79
REMARK   30  A    between atoms: _79  and  _80
REMARK   31  A    between atoms: _85  and  _87
REMARK   32  A    between atoms: _87  and  _88
REMARK   33  A    between atoms: _87  and  _90
REMARK   34  A    between atoms: _90  and  _91
REMARK   35  A    between atoms: _94  and  _96
REMARK   36  A    between atoms: _96  and  _97
REMARK   37  A    between atoms: _96  and  _99
REMARK   38  A    between atoms: _99  and  _100
REMARK   39  A    between atoms: _105  and  _107
REMARK   40  A    between atoms: _107  and  _108
REMARK   41  A    between atoms: _107  and  _110
REMARK   42  A    between atoms: _110  and  _111
REMARK   43  A    between atoms: _116  and  _117
REMARK   44  A    between atoms: _119  and  _121
REMARK   45  A    between atoms: _121  and  _122
REMARK   46  A    between atoms: _121  and  _124
REMARK   47  A    between atoms: _124  and  _125
REMARK   48  A    between atoms: _128  and  _130
REMARK   49  A    between atoms: _130  and  _131
REMARK   50  A    between atoms: _130  and  _133
REMARK   51  A    between atoms: _133  and  _134
REMARK   52  A    between atoms: _139  and  _141
REMARK   53  A    between atoms: _141  and  _142
REMARK   54  A    between atoms: _145  and  _147
REMARK   55  A    between atoms: _147  and  _148
REMARK   56  A    between atoms: _151  and  _153
REMARK   57  A    between atoms: _153  and  _154
REMARK   58  A    between atoms: _157  and  _159
REMARK   59  A    between atoms: _159  and  _160
REMARK   60  A    between atoms: _159  and  _162
REMARK   61  A    between atoms: _162  and  _163
REMARK   62  A    between atoms: _163  and  _164
REMARK   63  A    between atoms: _164  and  _165
REMARK   64  A    between atoms: _165  and  _166
REMARK   65  A    between atoms: _170  and  _172
REMARK   66  A    between atoms: _172  and  _173
REMARK   67  A    between atoms: _176  and  _178
REMARK   68  A    between atoms: _178  and  _179
REMARK   69  A    between atoms: _181  and  _183
REMARK   70  A    between atoms: _183  and  _184
REMARK   71  A    between atoms: _183  and  _186
REMARK   72  A    between atoms: _186  and  _187
REMARK   73  A    between atoms: _190  and  _192
REMARK   74  A    between atoms: _192  and  _193
REMARK   75  A    between atoms: _192  and  _195
REMARK   76  A    between atoms: _195  and  _196
REMARK   77  A    between atoms: _196  and  _197
REMARK   78  A    between atoms: _200  and  _202
REMARK   79  A    between atoms: _202  and  _203
REMARK   80  A    between atoms: _205  and  _207
REMARK   81  A    between atoms: _207  and  _208
REMARK   82  A    between atoms: _207  and  _210
REMARK   83  A    between atoms: _210  and  _211
REMARK   84  A    between atoms: _217  and  _219
REMARK   85  A    between atoms: _219  and  _220
REMARK   86  A    between atoms: _219  and  _222
REMARK   87  A    between atoms: _222  and  _223
REMARK   88  A    between atoms: _226  and  _228
REMARK   89  A    between atoms: _228  and  _229
REMARK   90  A    between atoms: _228  and  _231
REMARK   91  A    between atoms: _231  and  _232
REMARK   92  A    between atoms: _232  and  _233
REMARK   93  A    between atoms: _233  and  _234
REMARK   94  A    between atoms: _243  and  _245
REMARK   95  A    between atoms: _245  and  _246
REMARK   96  A    between atoms: _249  and  _251
REMARK   97  A    between atoms: _251  and  _252
REMARK   98  A    between atoms: _251  and  _254
REMARK   99  A    between atoms: _254  and  _255
REMARK  100  A    between atoms: _258  and  _260
REMARK  101  A    between atoms: _260  and  _261
REMARK  102  A    between atoms: _260  and  _263
REMARK  103  A    between atoms: _263  and  _264
REMARK  104  A    between atoms: _264  and  _265
REMARK  105  A    between atoms: _265  and  _266
REMARK  106  A    between atoms: _275  and  _277
REMARK  107  A    between atoms: _277  and  _278
REMARK  108  A    between atoms: _277  and  _280
REMARK  109  A    between atoms: _280  and  _281
REMARK  110  A    between atoms: _291  and  _293
REMARK  111  A    between atoms: _293  and  _294
REMARK  112  A    between atoms: _293  and  _296
REMARK  113  A    between atoms: _296  and  _297
REMARK  114  A    between atoms: _303  and  _305
REMARK  115  A    between atoms: _305  and  _306
REMARK  116  A    between atoms: _305  and  _308
REMARK  117  A    between atoms: _308  and  _309
REMARK  118  A    between atoms: _312  and  _314
REMARK  119  A    between atoms: _314  and  _315
REMARK  120  A    between atoms: _314  and  _317
REMARK  121  A    between atoms: _320  and  _322
REMARK  122  A    between atoms: _322  and  _323
REMARK  123  A    between atoms: _322  and  _325
REMARK  124  A    between atoms: _328  and  _330
REMARK  125  A    between atoms: _330  and  _331
REMARK  126  A    between atoms: _330  and  _333
REMARK  127  A    between atoms: _333  and  _334
REMARK  128  A    between atoms: _339  and  _341
REMARK  129  A    between atoms: _341  and  _342
REMARK  130  A    between atoms: _341  and  _344
REMARK  131  A    between atoms: _344  and  _345
REMARK  132  A    between atoms: _348  and  _350
REMARK  133  A    between atoms: _350  and  _351
REMARK  134  A    between atoms: _350  and  _353
REMARK  135  A    between atoms: _353  and  _354
REMARK  136  A    between atoms: _359  and  _361
REMARK  137  A    between atoms: _361  and  _362
REMARK  138  A    between atoms: _361  and  _364
REMARK  139  A    between atoms: _364  and  _365
REMARK  140  A    between atoms: _368  and  _370
REMARK  141  A    between atoms: _370  and  _371
REMARK  142  A    between atoms: _370  and  _373
REMARK  143  A    between atoms: _373  and  _374
REMARK  144  A    between atoms: _379  and  _381
REMARK  145  A    between atoms: _381  and  _382
REMARK  146  A    between atoms: _381  and  _384
REMARK  147  A    between atoms: _384  and  _385
REMARK  148  A    between atoms: _388  and  _390
REMARK  149  A    between atoms: _390  and  _391
REMARK  150  A    between atoms: _390  and  _393
REMARK  151  A    between atoms: _393  and  _394
REMARK  152  A    between atoms: _399  and  _401
REMARK  153  A    between atoms: _401  and  _402
REMARK  154  A    between atoms: _405  and  _407
REMARK  155  A    between atoms: _407  and  _408
REMARK  156  A    between atoms: _411  and  _413
REMARK  157  A    between atoms: _413  and  _414
REMARK  158  A    between atoms: _417  and  _419
REMARK  159  A    between atoms: _419  and  _420
REMARK  160  A    between atoms: _419  and  _422
REMARK  161  A    between atoms: _422  and  _423
REMARK  162  A    between atoms: _423  and  _424
REMARK  163  A    between atoms: _424  and  _425
REMARK  164  A    between atoms: _425  and  _426
REMARK  165  A    between atoms: _430  and  _432
REMARK  166  A    between atoms: _432  and  _433
REMARK  167  A    between atoms: _436  and  _438
REMARK  168  A    between atoms: _438  and  _439
REMARK  169  A    between atoms: _441  and  _443
REMARK  170  A    between atoms: _443  and  _444
REMARK  171  A    between atoms: _443  and  _446
REMARK  172  A    between atoms: _446  and  _447
REMARK  173  A    between atoms: _450  and  _452
REMARK  174  A    between atoms: _452  and  _453
REMARK  175  A    between atoms: _452  and  _455
REMARK  176  A    between atoms: _455  and  _456
REMARK  177  A    between atoms: _456  and  _457
REMARK  178  A    between atoms: _460  and  _462
REMARK  179  A    between atoms: _462  and  _463
REMARK  180  A    between atoms: _465  and  _467
REMARK  181  A    between atoms: _467  and  _468
REMARK  182  A    between atoms: _467  and  _470
REMARK  183  A    between atoms: _470  and  _471
REMARK  184  A    between atoms: _477  and  _479
REMARK  185  A    between atoms: _479  and  _480
REMARK  186  A    between atoms: _479  and  _482
REMARK  187  A    between atoms: _482  and  _483
REMARK  188  A    between atoms: _486  and  _488
REMARK  189  A    between atoms: _488  and  _489
REMARK  190  A    between atoms: _488  and  _491
REMARK  191  A    between atoms: _491  and  _492
REMARK  192  A    between atoms: _492  and  _493
REMARK  193  A    between atoms: _493  and  _494
REMARK  194  A    between atoms: _503  and  _505
REMARK  195  A    between atoms: _505  and  _506
REMARK  196  A    between atoms: _509  and  _511
REMARK  197  A    between atoms: _511  and  _512
REMARK  198  A    between atoms: _511  and  _514
REMARK  199  A    between atoms: _514  and  _515
REMARK                            x       y       z     vdW  Elec       q    Type
REMARK                         _______ _______ _______ _____ _____    ______ ____
ROOT
ATOM      1  CG  TYR A   1      -0.486  -2.245  41.311  0.00  0.00    -0.020 A 
ATOM      2  CD2 TYR A   1      -0.379  -0.861  41.386  0.00  0.00    -0.001 A 
ATOM      3  CE2 TYR A   1      -1.429  -0.042  41.022  0.00  0.00    +0.036 A 
ATOM      4  CZ  TYR A   1      -2.576  -0.633  40.606  0.00  0.00    +0.134 A 
ATOM      5  CE1 TYR A   1      -2.729  -1.996  40.547  0.00  0.00    +0.036 A 
ATOM      6  CD1 TYR A   1      -1.686  -2.804  40.915  0.00  0.00    -0.001 A 
ENDROOT
BRANCH   4   7
ATOM      7  OH  TYR A   1      -3.617   0.151  40.256  0.00  0.00    -0.506 OA
ATOM      8  HH  TYR A   1      -3.867  -0.034  39.316  0.00  0.00    +0.292 HD
ENDBRANCH   4   7
BRANCH   1   9
ATOM      9  CB  TYR A   1       0.652  -3.096  41.664  0.00  0.00    +0.051 C 
BRANCH   9  10
ATOM     10  CA  TYR A   1       1.001  -3.038  43.136  0.00  0.00    +0.137 C 
BRANCH  10  11
ATOM     11  N   TYR A   1       2.204  -3.735  43.365  0.00  0.00    -0.239 NA
ATOM     12  H   TYR A   1       2.626  -4.312  42.609  0.00  0.00    +0.142 HD
ENDBRANCH  10  11
BRANCH  10  13
ATOM     13  C   TYR A   1      -0.125  -3.669  43.960  0.00  0.00    +0.224 C 
ATOM     14  O   TYR A   1      -0.910  -2.946  44.568  0.00  0.00    -0.287 OA
ENDBRANCH  10  13
ENDBRANCH   9  10
ENDBRANCH   1   9
TORSDOF 5
REMARK  Name = ../refined-set-2016/4bny/4bny_pocket.pdb
REMARK  199 active torsions:
REMARK  status: ('A' for Active; 'I' for Inactive)
REMARK    1  A    between atoms: _1  and  _3
REMARK    2  A    between atoms: _3  and  _4
REMARK    3  A    between atoms: _3  and  _6
REMARK    4  A    between atoms: _6  and  _7
REMARK    5  A    between atoms: _17  and  _19
REMARK    6  A    between atoms: _19  and  _20
REMARK    7  A    between atoms: _19  and  _22
REMARK    8  A    between atoms: _22  and  _23
REMARK    9  A    between atoms: _29  and  _31
REMARK   10  A    between atoms: _31  and  _32
REMARK   11  A    between atoms: _31  and  _34
REMARK   12  A    between atoms: _34  and  _35
REMARK   13  A    between atoms: _38  and  _40
REMARK   14  A    between atoms: _40  and  _41
REMARK   15  A    between atoms: _40  and  _43
REMARK   16  A    between atoms: _46  and  _48
REMARK   17  A    between atoms: _48  and  _49
REMARK   18  A    between atoms: _48  and  _51
REMARK   19  A    between atoms: _54  and  _56
REMARK   20  A    between atoms: _56  and  _57
REMARK   21  A    between atoms: _56  and  _59
REMARK   22  A    between atoms: _59  and  _60
REMARK   23  A    between atoms: _65  and  _67
REMARK   24  A    between atoms: _67  and  _68
REMARK   25  A    between atoms: _67  and  _70
REMARK   26  A    between atoms: _70  and  _71
REMARK   27  A    between atoms: _74  and  _76
REMARK   28  A    between atoms: _76  and  _77
REMARK   29  A    between atoms: _76  and  _79
REMARK   30  A    between atoms: _79  and  _80
REMARK   31  A    between atoms: _85  and  _87
REMARK   32  A    between atoms: _87  and  _88
REMARK   33  A    between atoms: _87  and  _90
REMARK   34  A    between atoms: _90  and  _91
REMARK   35  A    between atoms: _94  and  _96
REMARK   36  A    between atoms: _96  and  _97
REMARK   37  A    between atoms: _96  and  _99
REMARK   38  A    between atoms: _99  and  _100
REMARK   39  A    between atoms: _105  and  _107
REMARK   40  A    between atoms: _107  and  _108
REMARK   41  A    between atoms: _107  and  _110
REMARK   42  A    between atoms: _110  and  _111
REMARK   43  A    between atoms: _116  and  _117
REMARK   44  A    between atoms: _119  and  _121
REMARK   45  A    between atoms: _121  and  _122
REMARK   46  A    between atoms: _121  and  _124
REMARK   47  A    between atoms: _124  and  _125
REMARK   48  A    between atoms: _128  and  _130
REMARK   49  A    between atoms: _130  and  _131
REMARK   50  A    between atoms: _130  and  _133
REMARK   51  A    between atoms: _133  and  _134
REMARK   52  A    between atoms: _139  and  _141
REMARK   53  A    between atoms: _141  and  _142
REMARK   54  A    between atoms: _145  and  _147
REMARK   55  A    between atoms: _147  and  _148
REMARK   56  A    between atoms: _151  and  _153
REMARK   57  A    between atoms: _153  and  _154
REMARK   58  A    between atoms: _157  and  _159
REMARK   59  A    between atoms: _159  and  _160
REMARK   60  A    between atoms: _159  and  _162
REMARK   61  A    between atoms: _162  and  _163
REMARK   62  A    between atoms: _163  and  _164
REMARK   63  A    between atoms: _164  and  _165
REMARK   64  A    between atoms: _165  and  _166
REMARK   65  A    between atoms: _170  and  _172
REMARK   66  A    between atoms: _172  and  _173
REMARK   67  A    between atoms: _176  and  _178
REMARK   68  A    between atoms: _178  and  _179
REMARK   69  A    between atoms: _181  and  _183
REMARK   70  A    between atoms: _183  and  _184
REMARK   71  A    between atoms: _183  and  _186
REMARK   72  A    between atoms: _186  and  _187
REMARK   73  A    between atoms: _190  and  _192
REMARK   74  A    between atoms: _192  and  _193
REMARK   75  A    between atoms: _192  and  _195
REMARK   76  A    between atoms: _195  and  _196
REMARK   77  A    between atoms: _196  and  _197
REMARK   78  A    between atoms: _200  and  _202
REMARK   79  A    between atoms: _202  and  _203
REMARK   80  A    between atoms: _205  and  _207
REMARK   81  A    between atoms: _207  and  _208
REMARK   82  A    between atoms: _207  and  _210
REMARK   83  A    between atoms: _210  and  _211
REMARK   84  A    between atoms: _217  and  _219
REMARK   85  A    between atoms: _219  and  _220
REMARK   86  A    between atoms: _219  and  _222
REMARK   87  A    between atoms: _222  and  _223
REMARK   88  A    between atoms: _226  and  _228
REMARK   89  A    between atoms: _228  and  _229
REMARK   90  A    between atoms: _228  and  _231
REMARK   91  A    between atoms: _231  and  _232
REMARK   92  A    between atoms: _232  and  _233
REMARK   93  A    between atoms: _233  and  _234
REMARK   94  A    between atoms: _243  and  _245
REMARK   95  A    between atoms: _245  and  _246
REMARK   96  A    between atoms: _249  and  _251
REMARK   97  A    between atoms: _251  and  _252
REMARK   98  A    between atoms: _251  and  _254
REMARK   99  A    between atoms: _254  and  _255
REMARK  100  A    between atoms: _258  and  _260
REMARK  101  A    between atoms: _260  and  _261
REMARK  102  A    between atoms: _260  and  _263
REMARK  103  A    between atoms: _263  and  _264
REMARK  104  A    between atoms: _264  and  _265
REMARK  105  A    between atoms: _265  and  _266
REMARK  106  A    between atoms: _275  and  _277
REMARK  107  A    between atoms: _277  and  _278
REMARK  108  A    between atoms: _277  and  _280
REMARK  109  A    between atoms: _280  and  _281
REMARK  110  A    between atoms: _291  and  _293
REMARK  111  A    between atoms: _293  and  _294
REMARK  112  A    between atoms: _293  and  _296
REMARK  113  A    between atoms: _296  and  _297
REMARK  114  A    between atoms: _303  and  _305
REMARK  115  A    between atoms: _305  and  _306
REMARK  116  A    between atoms: _305  and  _308
REMARK  117  A    between atoms: _308  and  _309
REMARK  118  A    between atoms: _312  and  _314
REMARK  119  A    between atoms: _314  and  _315
REMARK  120  A    between atoms: _314  and  _317
REMARK  121  A    between atoms: _320  and  _322
REMARK  122  A    between atoms: _322  and  _323
REMARK  123  A    between atoms: _322  and  _325
REMARK  124  A    between atoms: _328  and  _330
REMARK  125  A    between atoms: _330  and  _331
REMARK  126  A    between atoms: _330  and  _333
REMARK  127  A    between atoms: _333  and  _334
REMARK  128  A    between atoms: _339  and  _341
REMARK  129  A    between atoms: _341  and  _342
REMARK  130  A    between atoms: _341  and  _344
REMARK  131  A    between atoms: _344  and  _345
REMARK  132  A    between atoms: _348  and  _350
REMARK  133  A    between atoms: _350  and  _351
REMARK  134  A    between atoms: _350  and  _353
REMARK  135  A    between atoms: _353  and  _354
REMARK  136  A    between atoms: _359  and  _361
REMARK  137  A    between atoms: _361  and  _362
REMARK  138  A    between atoms: _361  and  _364
REMARK  139  A    between atoms: _364  and  _365
REMARK  140  A    between atoms: _368  and  _370
REMARK  141  A    between atoms: _370  and  _371
REMARK  142  A    between atoms: _370  and  _373
REMARK  143  A    between atoms: _373  and  _374
REMARK  144  A    between atoms: _379  and  _381
REMARK  145  A    between atoms: _381  and  _382
REMARK  146  A    between atoms: _381  and  _384
REMARK  147  A    between atoms: _384  and  _385
REMARK  148  A    between atoms: _388  and  _390
REMARK  149  A    between atoms: _390  and  _391
REMARK  150  A    between atoms: _390  and  _393
REMARK  151  A    between atoms: _393  and  _394
REMARK  152  A    between atoms: _399  and  _401
REMARK  153  A    between atoms: _401  and  _402
REMARK  154  A    between atoms: _405  and  _407
REMARK  155  A    between atoms: _407  and  _408
REMARK  156  A    between atoms: _411  and  _413
REMARK  157  A    between atoms: _413  and  _414
REMARK  158  A    between atoms: _417  and  _419
REMARK  159  A    between atoms: _419  and  _420
REMARK  160  A    between atoms: _419  and  _422
REMARK  161  A    between atoms: _422  and  _423
REMARK  162  A    between atoms: _423  and  _424
REMARK  163  A    between atoms: _424  and  _425
REMARK  164  A    between atoms: _425  and  _426
REMARK  165  A    between atoms: _430  and  _432
REMARK  166  A    between atoms: _432  and  _433
REMARK  167  A    between atoms: _436  and  _438
REMARK  168  A    between atoms: _438  and  _439
REMARK  169  A    between atoms: _441  and  _443
REMARK  170  A    between atoms: _443  and  _444
REMARK  171  A    between atoms: _443  and  _446
REMARK  172  A    between atoms: _446  and  _447
REMARK  173  A    between atoms: _450  and  _452
REMARK  174  A    between atoms: _452  and  _453
REMARK  175  A    between atoms: _452  and  _455
REMARK  176  A    between atoms: _455  and  _456
REMARK  177  A    between atoms: _456  and  _457
REMARK  178  A    between atoms: _460  and  _462
REMARK  179  A    between atoms: _462  and  _463
REMARK  180  A    between atoms: _465  and  _467
REMARK  181  A    between atoms: _467  and  _468
REMARK  182  A    between atoms: _467  and  _470
REMARK  183  A    between atoms: _470  and  _471
REMARK  184  A    between atoms: _477  and  _479
REMARK  185  A    between atoms: _479  and  _480
REMARK  186  A    between atoms: _479  and  _482
REMARK  187  A    between atoms: _482  and  _483
REMARK  188  A    between atoms: _486  and  _488
REMARK  189  A    between atoms: _488  and  _489
REMARK  190  A    between atoms: _488  and  _491
REMARK  191  A    between atoms: _491  and  _492
REMARK  192  A    between atoms: _492  and  _493
REMARK  193  A    between atoms: _493  and  _494
REMARK  194  A    between atoms: _503  and  _505
REMARK  195  A    between atoms: _505  and  _506
REMARK  196  A    between atoms: _509  and  _511
REMARK  197  A    between atoms: _511  and  _512
REMARK  198  A    between atoms: _511  and  _514
REMARK  199  A    between atoms: _514  and  _515
REMARK                            x       y       z     vdW  Elec       q    Type
REMARK                         _______ _______ _______ _____ _____    ______ ____
ROOT
ATOM      1  C   THR A   1      19.236  -6.748  33.700  0.00  0.00    +0.241 C 
ATOM      2  N   ASN A   2      19.109  -7.816  34.481  0.00  0.00    -0.298 N 
ATOM      3  H   ASN A   2      19.782  -8.599  34.357  0.00  0.00    +0.150 HD
ATOM      4  O   THR A   1      18.487  -5.782  33.729  0.00  0.00    -0.274 OA
ENDROOT
BRANCH   1   5
ATOM      5  CA  THR A   1      20.433  -6.776  32.722  0.00  0.00    +0.172 C 
BRANCH   5   6
ATOM      6  N   THR A   1      21.712  -7.112  33.451  0.00  0.00    -0.236 NA
ATOM      7  H   THR A   1      22.266  -7.944  33.163  0.00  0.00    +0.142 HD
ENDBRANCH   5   6
BRANCH   5   8
ATOM      8  CB  THR A   1      20.145  -7.744  31.560  0.00  0.00    +0.135 C 
ATOM      9  CG2 THR A   1      18.880  -7.320  30.826  0.00  0.00    +0.034 C 
BRANCH   8  10
ATOM     10  OG1 THR A   1      21.247  -7.707  30.659  0.00  0.00    -0.383 OA
ATOM     11  HG1 THR A   1      22.070  -7.984  31.135  0.00  0.00    +0.210 HD
ENDBRANCH   8  10
ENDBRANCH   5   8
ENDBRANCH   1   5
BRANCH   2  12
ATOM     12  CA  ASN A   2      18.095  -7.948  35.485  0.00  0.00    +0.146 C 
BRANCH  12  13
ATOM     13  C   ASN A   2      18.134  -6.860  36.520  0.00  0.00    +0.227 C 
ATOM     14  O   ASN A   2      17.072  -6.282  36.785  0.00  0.00    -0.286 OA
ENDBRANCH  12  13
BRANCH  12  15
ATOM     15  CB  ASN A   2      18.187  -9.330  36.100  0.00  0.00    +0.112 C 
BRANCH  15  16
ATOM     16  CG  ASN A   2      17.540 -10.391  35.226  0.00  0.00    +0.222 C 
ATOM     17  OD1 ASN A   2      16.402 -10.740  35.467  0.00  0.00    -0.275 OA
ATOM     18  ND2 ASN A   2      18.230 -10.877  34.171  0.00  0.00    -0.329 N 
ATOM     19 HD21 ASN A   2      19.203 -10.556  33.994  0.00  0.00    +0.145 HD
ATOM     20 HD22 ASN A   2      17.788 -11.572  33.536  0.00  0.00    +0.145 HD
ENDBRANCH  15  16
ENDBRANCH  12  15
ENDBRANCH   2  12
TORSDOF 8
REMARK  Name = ../refined-set-2016/4bny/4bny_pocket.pdb
REMARK  199 active torsions:
REMARK  status: ('A' for Active; 'I' for Inactive)
REMARK    1  A    between atoms: _1  and  _3
REMARK    2  A    between atoms: _3  and  _4
REMARK    3  A    between atoms: _3  and  _6
REMARK    4  A    between atoms: _6  and  _7
REMARK    5  A    between atoms: _17  and  _19
REMARK    6  A    between atoms: _19  and  _20
REMARK    7  A    between atoms: _19  and  _22
REMARK    8  A    between atoms: _22  and  _23
REMARK    9  A    between atoms: _29  and  _31
REMARK   10  A    between atoms: _31  and  _32
REMARK   11  A    between atoms: _31  and  _34
REMARK   12  A    between atoms: _34  and  _35
REMARK   13  A    between atoms: _38  and  _40
REMARK   14  A    between atoms: _40  and  _41
REMARK   15  A    between atoms: _40  and  _43
REMARK   16  A    between atoms: _46  and  _48
REMARK   17  A    between atoms: _48  and  _49
REMARK   18  A    between atoms: _48  and  _51
REMARK   19  A    between atoms: _54  and  _56
REMARK   20  A    between atoms: _56  and  _57
REMARK   21  A    between atoms: _56  and  _59
REMARK   22  A    between atoms: _59  and  _60
REMARK   23  A    between atoms: _65  and  _67
REMARK   24  A    between atoms: _67  and  _68
REMARK   25  A    between atoms: _67  and  _70
REMARK   26  A    between atoms: _70  and  _71
REMARK   27  A    between atoms: _74  and  _76
REMARK   28  A    between atoms: _76  and  _77
REMARK   29  A    between atoms: _76  and  _79
REMARK   30  A    between atoms: _79  and  _80
REMARK   31  A    between atoms: _85  and  _87
REMARK   32  A    between atoms: _87  and  _88
REMARK   33  A    between atoms: _87  and  _90
REMARK   34  A    between atoms: _90  and  _91
REMARK   35  A    between atoms: _94  and  _96
REMARK   36  A    between atoms: _96  and  _97
REMARK   37  A    between atoms: _96  and  _99
REMARK   38  A    between atoms: _99  and  _100
REMARK   39  A    between atoms: _105  and  _107
REMARK   40  A    between atoms: _107  and  _108
REMARK   41  A    between atoms: _107  and  _110
REMARK   42  A    between atoms: _110  and  _111
REMARK   43  A    between atoms: _116  and  _117
REMARK   44  A    between atoms: _119  and  _121
REMARK   45  A    between atoms: _121  and  _122
REMARK   46  A    between atoms: _121  and  _124
REMARK   47  A    between atoms: _124  and  _125
REMARK   48  A    between atoms: _128  and  _130
REMARK   49  A    between atoms: _130  and  _131
REMARK   50  A    between atoms: _130  and  _133
REMARK   51  A    between atoms: _133  and  _134
REMARK   52  A    between atoms: _139  and  _141
REMARK   53  A    between atoms: _141  and  _142
REMARK   54  A    between atoms: _145  and  _147
REMARK   55  A    between atoms: _147  and  _148
REMARK   56  A    between atoms: _151  and  _153
REMARK   57  A    between atoms: _153  and  _154
REMARK   58  A    between atoms: _157  and  _159
REMARK   59  A    between atoms: _159  and  _160
REMARK   60  A    between atoms: _159  and  _162
REMARK   61  A    between atoms: _162  and  _163
REMARK   62  A    between atoms: _163  and  _164
REMARK   63  A    between atoms: _164  and  _165
REMARK   64  A    between atoms: _165  and  _166
REMARK   65  A    between atoms: _170  and  _172
REMARK   66  A    between atoms: _172  and  _173
REMARK   67  A    between atoms: _176  and  _178
REMARK   68  A    between atoms: _178  and  _179
REMARK   69  A    between atoms: _181  and  _183
REMARK   70  A    between atoms: _183  and  _184
REMARK   71  A    between atoms: _183  and  _186
REMARK   72  A    between atoms: _186  and  _187
REMARK   73  A    between atoms: _190  and  _192
REMARK   74  A    between atoms: _192  and  _193
REMARK   75  A    between atoms: _192  and  _195
REMARK   76  A    between atoms: _195  and  _196
REMARK   77  A    between atoms: _196  and  _197
REMARK   78  A    between atoms: _200  and  _202
REMARK   79  A    between atoms: _202  and  _203
REMARK   80  A    between atoms: _205  and  _207
REMARK   81  A    between atoms: _207  and  _208
REMARK   82  A    between atoms: _207  and  _210
REMARK   83  A    between atoms: _210  and  _211
REMARK   84  A    between atoms: _217  and  _219
REMARK   85  A    between atoms: _219  and  _220
REMARK   86  A    between atoms: _219  and  _222
REMARK   87  A    between atoms: _222  and  _223
REMARK   88  A    between atoms: _226  and  _228
REMARK   89  A    between atoms: _228  and  _229
REMARK   90  A    between atoms: _228  and  _231
REMARK   91  A    between atoms: _231  and  _232
REMARK   92  A    between atoms: _232  and  _233
REMARK   93  A    between atoms: _233  and  _234
REMARK   94  A    between atoms: _243  and  _245
REMARK   95  A    between atoms: _245  and  _246
REMARK   96  A    between atoms: _249  and  _251
REMARK   97  A    between atoms: _251  and  _252
REMARK   98  A    between atoms: _251  and  _254
REMARK   99  A    between atoms: _254  and  _255
REMARK  100  A    between atoms: _258  and  _260
REMARK  101  A    between atoms: _260  and  _261
REMARK  102  A    between atoms: _260  and  _263
REMARK  103  A    between atoms: _263  and  _264
REMARK  104  A    between atoms: _264  and  _265
REMARK  105  A    between atoms: _265  and  _266
REMARK  106  A    between atoms: _275  and  _277
REMARK  107  A    between atoms: _277  and  _278
REMARK  108  A    between atoms: _277  and  _280
REMARK  109  A    between atoms: _280  and  _281
REMARK  110  A    between atoms: _291  and  _293
REMARK  111  A    between atoms: _293  and  _294
REMARK  112  A    between atoms: _293  and  _296
REMARK  113  A    between atoms: _296  and  _297
REMARK  114  A    between atoms: _303  and  _305
REMARK  115  A    between atoms: _305  and  _306
REMARK  116  A    between atoms: _305  and  _308
REMARK  117  A    between atoms: _308  and  _309
REMARK  118  A    between atoms: _312  and  _314
REMARK  119  A    between atoms: _314  and  _315
REMARK  120  A    between atoms: _314  and  _317
REMARK  121  A    between atoms: _320  and  _322
REMARK  122  A    between atoms: _322  and  _323
REMARK  123  A    between atoms: _322  and  _325
REMARK  124  A    between atoms: _328  and  _330
REMARK  125  A    between atoms: _330  and  _331
REMARK  126  A    between atoms: _330  and  _333
REMARK  127  A    between atoms: _333  and  _334
REMARK  128  A    between atoms: _339  and  _341
REMARK  129  A    between atoms: _341  and  _342
REMARK  130  A    between atoms: _341  and  _344
REMARK  131  A    between atoms: _344  and  _345
REMARK  132  A    between atoms: _348  and  _350
REMARK  133  A    between atoms: _350  and  _351
REMARK  134  A    between atoms: _350  and  _353
REMARK  135  A    between atoms: _353  and  _354
REMARK  136  A    between atoms: _359  and  _361
REMARK  137  A    between atoms: _361  and  _362
REMARK  138  A    between atoms: _361  and  _364
REMARK  139  A    between atoms: _364  and  _365
REMARK  140  A    between atoms: _368  and  _370
REMARK  141  A    between atoms: _370  and  _371
REMARK  142  A    between atoms: _370  and  _373
REMARK  143  A    between atoms: _373  and  _374
REMARK  144  A    between atoms: _379  and  _381
REMARK  145  A    between atoms: _381  and  _382
REMARK  146  A    between atoms: _381  and  _384
REMARK  147  A    between atoms: _384  and  _385
REMARK  148  A    between atoms: _388  and  _390
REMARK  149  A    between atoms: _390  and  _391
REMARK  150  A    between atoms: _390  and  _393
REMARK  151  A    between atoms: _393  and  _394
REMARK  152  A    between atoms: _399  and  _401
REMARK  153  A    between atoms: _401  and  _402
REMARK  154  A    between atoms: _405  and  _407
REMARK  155  A    between atoms: _407  and  _408
REMARK  156  A    between atoms: _411  and  _413
REMARK  157  A    between atoms: _413  and  _414
REMARK  158  A    between atoms: _417  and  _419
REMARK  159  A    between atoms: _419  and  _420
REMARK  160  A    between atoms: _419  and  _422
REMARK  161  A    between atoms: _422  and  _423
REMARK  162  A    between atoms: _423  and  _424
REMARK  163  A    between atoms: _424  and  _425
REMARK  164  A    between atoms: _425  and  _426
REMARK  165  A    between atoms: _430  and  _432
REMARK  166  A    between atoms: _432  and  _433
REMARK  167  A    between atoms: _436  and  _438
REMARK  168  A    between atoms: _438  and  _439
REMARK  169  A    between atoms: _441  and  _443
REMARK  170  A    between atoms: _443  and  _444
REMARK  171  A    between atoms: _443  and  _446
REMARK  172  A    between atoms: _446  and  _447
REMARK  173  A    between atoms: _450  and  _452
REMARK  174  A    between atoms: _452  and  _453
REMARK  175  A    between atoms: _452  and  _455
REMARK  176  A    between atoms: _455  and  _456
REMARK  177  A    between atoms: _456  and  _457
REMARK  178  A    between atoms: _460  and  _462
REMARK  179  A    between atoms: _462  and  _463
REMARK  180  A    between atoms: _465  and  _467
REMARK  181  A    between atoms: _467  and  _468
REMARK  182  A    between atoms: _467  and  _470
REMARK  183  A    between atoms: _470  and  _471
REMARK  184  A    between atoms: _477  and  _479
REMARK  185  A    between atoms: _479  and  _480
REMARK  186  A    between atoms: _479  and  _482
REMARK  187  A    between atoms: _482  and  _483
REMARK  188  A    between atoms: _486  and  _488
REMARK  189  A    between atoms: _488  and  _489
REMARK  190  A    between atoms: _488  and  _491
REMARK  191  A    between atoms: _491  and  _492
REMARK  192  A    between atoms: _492  and  _493
REMARK  193  A    between atoms: _493  and  _494
REMARK  194  A    between atoms: _503  and  _505
REMARK  195  A    between atoms: _505  and  _506
REMARK  196  A    between atoms: _509  and  _511
REMARK  197  A    between atoms: _511  and  _512
REMARK  198  A    between atoms: _511  and  _514
REMARK  199  A    between atoms: _514  and  _515
REMARK                            x       y       z     vdW  Elec       q    Type
REMARK                         _______ _______ _______ _____ _____    ______ ____
ROOT
ATOM      1  C   GLU A   8      10.777   4.564  39.574  0.00  0.00    +0.241 C 
ATOM      2  O   GLU A   8      10.160   5.506  40.127  0.00  0.00    -0.273 OA
ATOM      3  N   GLY A   9      10.407   4.033  38.422  0.00  0.00    -0.295 N 
ATOM      4  H   GLY A   9      10.913   3.222  38.012  0.00  0.00    +0.150 HD
ENDROOT
BRANCH   3   5
ATOM      5  CA  GLY A   9       9.245   4.640  37.741  0.00  0.00    +0.176 C 
BRANCH   5   6
ATOM      6  C   GLY A   9       7.942   4.325  38.450  0.00  0.00    +0.243 C 
ATOM      7  N   PHE A  10       7.837   3.113  38.949  0.00  0.00    -0.297 N 
ATOM      8  H   PHE A  10       8.630   2.454  38.811  0.00  0.00    +0.150 HD
ATOM      9  O   GLY A   9       7.038   5.159  38.487  0.00  0.00    -0.273 OA
BRANCH   7  10
ATOM     10  CA  PHE A  10       6.657   2.636  39.694  0.00  0.00    +0.153 C 
BRANCH  10  11
ATOM     11  C   PHE A  10       6.452   3.529  40.912  0.00  0.00    +0.241 C 
ATOM     12  N   THR A  11       7.540   3.742  41.650  0.00  0.00    -0.295 N 
ATOM     13  H   THR A  11       8.442   3.321  41.349  0.00  0.00    +0.150 HD
ATOM     14  O   PHE A  10       5.331   3.987  41.174  0.00  0.00    -0.273 OA
BRANCH  12  15
ATOM     15  CA  THR A  11       7.506   4.552  42.875  0.00  0.00    +0.176 C 
BRANCH  15  16
ATOM     16  C   THR A  11       7.099   6.007  42.616  0.00  0.00    +0.243 C 
ATOM     17  O   THR A  11       6.237   6.583  43.313  0.00  0.00    -0.273 OA
ATOM     18  N   ARG A  12       7.669   6.622  41.550  0.00  0.00    -0.297 N 
ATOM     19  H   ARG A  12       8.374   6.103  40.989  0.00  0.00    +0.150 HD
BRANCH  18  20
ATOM     20  CA  ARG A  12       7.335   7.958  41.170  0.00  0.00    +0.149 C 
BRANCH  20  21
ATOM     21  C   ARG A  12       5.824   8.060  40.758  0.00  0.00    +0.241 C 
ATOM     22  O   ARG A  12       5.121   8.987  41.187  0.00  0.00    -0.273 OA
ATOM     23  N   ALA A  13       5.353   7.106  40.014  0.00  0.00    -0.297 N 
ATOM     24  H   ALA A  13       5.964   6.310  39.741  0.00  0.00    +0.150 HD
BRANCH  23  25
ATOM     25  CA  ALA A  13       3.975   7.151  39.564  0.00  0.00    +0.149 C 
ATOM     26  CB  ALA A  13       3.721   6.138  38.477  0.00  0.00    +0.031 C 
BRANCH  25  27
ATOM     27  C   ALA A  13       2.983   6.939  40.727  0.00  0.00    +0.241 C 
ATOM     28  N   LEU A  14       3.257   5.972  41.599  0.00  0.00    -0.298 N 
ATOM     29  H   LEU A  14       4.113   5.391  41.494  0.00  0.00    +0.150 HD
ATOM     30  O   ALA A  13       1.957   7.673  40.858  0.00  0.00    -0.273 OA
BRANCH  28  31
ATOM     31  CA  LEU A  14       2.330   5.742  42.710  0.00  0.00    +0.137 C 
BRANCH  31  32
ATOM     32  C   LEU A  14       2.329   6.924  43.671  0.00  0.00    +0.227 C 
ATOM     33  O   LEU A  14       1.256   7.325  44.165  0.00  0.00    -0.286 OA
ENDBRANCH  31  32
BRANCH  31  34
ATOM     34  CB  LEU A  14       2.711   4.414  43.444  0.00  0.00    +0.028 C 
BRANCH  34  35
ATOM     35  CG  LEU A  14       1.690   3.996  44.525  0.00  0.00    +0.002 C 
ATOM     36  CD2 LEU A  14       2.229   2.749  45.199  0.00  0.00    +0.000 C 
ATOM     37  CD1 LEU A  14       0.302   3.749  43.941  0.00  0.00    +0.000 C 
ENDBRANCH  34  35
ENDBRANCH  31  34
ENDBRANCH  28  31
ENDBRANCH  25  27
ENDBRANCH  23  25
ENDBRANCH  20  21
BRANCH  20  38
ATOM     38  CB  ARG A  12       8.210   8.512  40.057  0.00  0.00    +0.033 C 
BRANCH  38  39
ATOM     39  CG  ARG A  12       7.988  10.005  39.897  0.00  0.00    +0.045 C 
BRANCH  39  40
ATOM     40  CD  ARG A  12       8.894  10.719  38.964  0.00  0.00    +0.174 C 
BRANCH  40  41
ATOM     41  NE  ARG A  12      10.282  10.813  39.411  0.00  0.00    -0.265 N 
ATOM     42  HE  ARG A  12      10.537  10.450  40.351  0.00  0.00    +0.259 HD
ATOM     43  CZ  ARG A  12      11.210  11.342  38.659  0.00  0.00    +0.342 C 
ATOM     44  NH2 ARG A  12      12.451  11.407  39.108  0.00  0.00    -0.292 N 
ATOM     45 HH21 ARG A  12      12.682  11.039  40.053  0.00  0.00    +0.255 HD
ATOM     46 HH22 ARG A  12      13.197  11.826  38.517  0.00  0.00    +0.255 HD
ATOM     47  NH1 ARG A  12      10.925  11.794  37.420  0.00  0.00    -0.292 N 
ATOM     48 HH11 ARG A  12       9.955  11.724  37.051  0.00  0.00    +0.255 HD
ATOM     49 HH12 ARG A  12      11.675  12.213  36.834  0.00  0.00    +0.255 HD
ENDBRANCH  40  41
ENDBRANCH  39  40
ENDBRANCH  38  39
ENDBRANCH  20  38
ENDBRANCH  18  20
ENDBRANCH  15  16
BRANCH  15  50
ATOM     50  CB  THR A  11       8.864   4.459  43.537  0.00  0.00    +0.137 C 
ATOM     51  CG2 THR A  11       8.932   5.357  44.781  0.00  0.00    +0.034 C 
BRANCH  50  52
ATOM     52  OG1 THR A  11       9.080   3.087  43.888  0.00  0.00    -0.382 OA
ATOM     53  HG1 THR A  11       9.055   2.530  43.070  0.00  0.00    +0.210 HD
ENDBRANCH  50  52
ENDBRANCH  15  50
ENDBRANCH  12  15
ENDBRANCH  10  11
BRANCH  10  54
ATOM     54  CB  PHE A  10       6.807   1.157  40.058  0.00  0.00    +0.055 C 
BRANCH  54  55
ATOM     55  CG  PHE A  10       5.672   0.608  40.890  0.00  0.00    -0.020 A 
ATOM     56  CD2 PHE A  10       5.649   0.818  42.284  0.00  0.00    -0.004 A 
ATOM     57  CE2 PHE A  10       4.615   0.336  43.047  0.00  0.00    -0.000 A 
ATOM     58  CZ  PHE A  10       3.568  -0.310  42.438  0.00  0.00    -0.000 A 
ATOM     59  CE1 PHE A  10       3.559  -0.467  41.084  0.00  0.00    -0.000 A 
ATOM     60  CD1 PHE A  10       4.633  -0.049  40.312  0.00  0.00    -0.004 A 
ENDBRANCH  54  55
ENDBRANCH  10  54
ENDBRANCH   7  10
ENDBRANCH   5   6
ENDBRANCH   3   5
BRANCH   1  61
ATOM     61  CA  GLU A   8      12.030   3.989  40.220  0.00  0.00    +0.149 C 
BRANCH  61  64
ATOM     62  C   LEU A   7      11.034   1.866  40.826  0.00  0.00    +0.241 C 
ATOM     63  O   LEU A   7      10.147   2.418  41.444  0.00  0.00    -0.273 OA
ATOM     64  N   GLU A   8      11.975   2.561  40.180  0.00  0.00    -0.297 N 
ATOM     65  H   GLU A   8      12.691   2.046  39.630  0.00  0.00    +0.150 HD
BRANCH  62  66
ATOM     66  CA  LEU A   7      11.079   0.356  40.747  0.00  0.00    +0.149 C 
BRANCH  66  68
ATOM     67  C   GLY A   6      10.584   0.147  38.368  0.00  0.00    +0.243 C 
ATOM     68  N   LEU A   7      11.400  -0.113  39.389  0.00  0.00    -0.297 N 
ATOM     69  H   LEU A   7      12.273  -0.653  39.225  0.00  0.00    +0.150 HD
ATOM     70  O   GLY A   6       9.543   0.811  38.502  0.00  0.00    -0.273 OA
BRANCH  67  71
ATOM     71  CA  GLY A   6      11.005  -0.413  37.012  0.00  0.00    +0.176 C 
BRANCH  71  74
ATOM     72  C   ALA A   5      12.837   1.042  36.645  0.00  0.00    +0.241 C 
ATOM     73  O   ALA A   5      12.074   2.043  36.783  0.00  0.00    -0.273 OA
ATOM     74  N   GLY A   6      12.383  -0.151  36.723  0.00  0.00    -0.295 N 
ATOM     75  H   GLY A   6      13.031  -0.951  36.573  0.00  0.00    +0.150 HD
BRANCH  72  76
ATOM     76  CA  ALA A   5      14.344   1.213  36.409  0.00  0.00    +0.149 C 
ATOM     77  CB  ALA A   5      14.650   1.062  34.927  0.00  0.00    +0.031 C 
BRANCH  76  80
ATOM     78  C   LYS A   4      15.078   0.325  38.518  0.00  0.00    +0.241 C 
ATOM     79  O   LYS A   4      14.439   1.228  39.128  0.00  0.00    -0.273 OA
ATOM     80  N   ALA A   5      15.117   0.251  37.184  0.00  0.00    -0.297 N 
ATOM     81  H   ALA A   5      15.687  -0.478  36.709  0.00  0.00    +0.150 HD
BRANCH  78  82
ATOM     82  CA  LYS A   4      15.868  -0.745  39.254  0.00  0.00    +0.149 C 
BRANCH  82  85
ATOM     83  C   ALA A   3      14.480  -2.625  38.688  0.00  0.00    +0.241 C 
ATOM     84  O   ALA A   3      13.484  -2.104  39.240  0.00  0.00    -0.273 OA
ATOM     85  N   LYS A   4      15.676  -2.035  38.677  0.00  0.00    -0.297 N 
ATOM     86  H   LYS A   4      16.483  -2.524  38.240  0.00  0.00    +0.150 HD
BRANCH  83  87
ATOM     87  CA  ALA A   3      14.383  -4.019  38.102  0.00  0.00    +0.149 C 
ATOM     88  CB  ALA A   3      14.841  -5.095  39.079  0.00  0.00    +0.031 C 
BRANCH  87  90
ATOM     89  C   ALA A   2      14.818  -3.299  35.802  0.00  0.00    +0.241 C 
ATOM     90  N   ALA A   3      15.190  -4.047  36.835  0.00  0.00    -0.297 N 
ATOM     91  H   ALA A   3      16.035  -4.649  36.767  0.00  0.00    +0.150 HD
ATOM     92  O   ALA A   2      13.829  -2.525  35.844  0.00  0.00    -0.273 OA
BRANCH  89  93
ATOM     93  CA  ALA A   2      15.677  -3.432  34.563  0.00  0.00    +0.149 C 
ATOM     94  CB  ALA A   2      15.285  -4.627  33.781  0.00  0.00    +0.031 C 
BRANCH  93  97
ATOM     95  C   ALA A   1      17.684  -2.450  35.481  0.00  0.00    +0.238 C 
ATOM     96  O   ALA A   1      17.115  -1.347  35.693  0.00  0.00    -0.274 OA
ATOM     97  N   ALA A   2      17.103  -3.509  34.948  0.00  0.00    -0.297 N 
ATOM     98  H   ALA A   2      17.641  -4.387  34.801  0.00  0.00    +0.150 HD
BRANCH  95  99
ATOM     99  CA  ALA A   1      19.185  -2.567  35.826  0.00  0.00    +0.145 C 
ATOM    100  CB  ALA A   1      20.059  -2.277  34.616  0.00  0.00    +0.028 C 
BRANCH  99 101
ATOM    101  N   ALA A   1      19.498  -3.838  36.384  0.00  0.00    -0.238 NA
ATOM    102  H   ALA A   1      20.103  -4.498  35.854  0.00  0.00    +0.142 HD
ENDBRANCH  99 101
ENDBRANCH  95  99
ENDBRANCH  93  97
ENDBRANCH  89  93
ENDBRANCH  87  90
ENDBRANCH  83  87
ENDBRANCH  82  85
BRANCH  82 103
ATOM    103  CB  LYS A   4      17.344  -0.414  39.238  0.00  0.00    +0.029 C 
BRANCH 103 104
ATOM    104  CG  LYS A   4      17.814   0.899  39.693  0.00  0.00    +0.000 C 
BRANCH 104 105
ATOM    105  CD  LYS A   4      19.323   0.635  39.555  0.00  0.00    -0.024 C 
BRANCH 105 106
ATOM    106  CE  LYS A   4      20.136   1.792  40.027  0.00  0.00    -0.086 C 
BRANCH 106 107
ATOM    107  NZ  LYS A   4      19.533   3.133  39.749  0.00  0.00    +0.380 N 
ATOM    108  HZ1 LYS A   4      18.609   3.201  40.221  0.00  0.00    -0.089 HD
ATOM    109  HZ2 LYS A   4      20.164   3.877  40.110  0.00  0.00    -0.089 HD
ATOM    110  HZ3 LYS A   4      19.409   3.250  38.723  0.00  0.00    -0.089 HD
ENDBRANCH 106 107
ENDBRANCH 105 106
ENDBRANCH 104 105
ENDBRANCH 103 104
ENDBRANCH  82 103
ENDBRANCH  78  82
ENDBRANCH  76  80
ENDBRANCH  72  76
ENDBRANCH  71  74
ENDBRANCH  67  71
ENDBRANCH  66  68
BRANCH  66 111
ATOM    111  CB  LEU A   7      12.086  -0.234  41.742  0.00  0.00    +0.029 C 
BRANCH 111 112
ATOM    112  CG  LEU A   7      11.638   0.071  43.220  0.00  0.00    +0.002 C 
ATOM    113  CD2 LEU A   7      12.421  -0.665  44.214  0.00  0.00    +0.000 C 
ATOM    114  CD1 LEU A   7      10.200  -0.390  43.358  0.00  0.00    +0.000 C 
ENDBRANCH 111 112
ENDBRANCH  66 111
ENDBRANCH  62  66
ENDBRANCH  61  64
BRANCH  61 115
ATOM    115  CB  GLU A   8      13.264   4.568  39.493  0.00  0.00    +0.041 C 
BRANCH 115 116
ATOM    116  CG  GLU A   8      14.508   4.431  40.298  0.00  0.00    +0.116 C 
BRANCH 116 117
ATOM    117  CD  GLU A   8      15.651   5.182  39.608  0.00  0.00    +0.365 C 
ATOM    118  OE2 GLU A   8      15.575   6.413  39.521  0.00  0.00    -0.246 OA
ATOM    119  OE1 GLU A   8      16.582   4.559  39.130  0.00  0.00    -0.246 OA
ENDBRANCH 116 117
ENDBRANCH 115 116
ENDBRANCH  61 115
ENDBRANCH   1  61
TORSDOF 48
REMARK  Name = ../refined-set-2016/4bny/4bny_pocket.pdb
REMARK  199 active torsions:
REMARK  status: ('A' for Active; 'I' for Inactive)
REMARK    1  A    between atoms: _1  and  _3
REMARK    2  A    between atoms: _3  and  _4
REMARK    3  A    between atoms: _3  and  _6
REMARK    4  A    between atoms: _6  and  _7
REMARK    5  A    between atoms: _17  and  _19
REMARK    6  A    between atoms: _19  and  _20
REMARK    7  A    between atoms: _19  and  _22
REMARK    8  A    between atoms: _22  and  _23
REMARK    9  A    between atoms: _29  and  _31
REMARK   10  A    between atoms: _31  and  _32
REMARK   11  A    between atoms: _31  and  _34
REMARK   12  A    between atoms: _34  and  _35
REMARK   13  A    between atoms: _38  and  _40
REMARK   14  A    between atoms: _40  and  _41
REMARK   15  A    between atoms: _40  and  _43
REMARK   16  A    between atoms: _46  and  _48
REMARK   17  A    between atoms: _48  and  _49
REMARK   18  A    between atoms: _48  and  _51
REMARK   19  A    between atoms: _54  and  _56
REMARK   20  A    between atoms: _56  and  _57
REMARK   21  A    between atoms: _56  and  _59
REMARK   22  A    between atoms: _59  and  _60
REMARK   23  A    between atoms: _65  and  _67
REMARK   24  A    between atoms: _67  and  _68
REMARK   25  A    between atoms: _67  and  _70
REMARK   26  A    between atoms: _70  and  _71
REMARK   27  A    between atoms: _74  and  _76
REMARK   28  A    between atoms: _76  and  _77
REMARK   29  A    between atoms: _76  and  _79
REMARK   30  A    between atoms: _79  and  _80
REMARK   31  A    between atoms: _85  and  _87
REMARK   32  A    between atoms: _87  and  _88
REMARK   33  A    between atoms: _87  and  _90
REMARK   34  A    between atoms: _90  and  _91
REMARK   35  A    between atoms: _94  and  _96
REMARK   36  A    between atoms: _96  and  _97
REMARK   37  A    between atoms: _96  and  _99
REMARK   38  A    between atoms: _99  and  _100
REMARK   39  A    between atoms: _105  and  _107
REMARK   40  A    between atoms: _107  and  _108
REMARK   41  A    between atoms: _107  and  _110
REMARK   42  A    between atoms: _110  and  _111
REMARK   43  A    between atoms: _116  and  _117
REMARK   44  A    between atoms: _119  and  _121
REMARK   45  A    between atoms: _121  and  _122
REMARK   46  A    between atoms: _121  and  _124
REMARK   47  A    between atoms: _124  and  _125
REMARK   48  A    between atoms: _128  and  _130
REMARK   49  A    between atoms: _130  and  _131
REMARK   50  A    between atoms: _130  and  _133
REMARK   51  A    between atoms: _133  and  _134
REMARK   52  A    between atoms: _139  and  _141
REMARK   53  A    between atoms: _141  and  _142
REMARK   54  A    between atoms: _145  and  _147
REMARK   55  A    between atoms: _147  and  _148
REMARK   56  A    between atoms: _151  and  _153
REMARK   57  A    between atoms: _153  and  _154
REMARK   58  A    between atoms: _157  and  _159
REMARK   59  A    between atoms: _159  and  _160
REMARK   60  A    between atoms: _159  and  _162
REMARK   61  A    between atoms: _162  and  _163
REMARK   62  A    between atoms: _163  and  _164
REMARK   63  A    between atoms: _164  and  _165
REMARK   64  A    between atoms: _165  and  _166
REMARK   65  A    between atoms: _170  and  _172
REMARK   66  A    between atoms: _172  and  _173
REMARK   67  A    between atoms: _176  and  _178
REMARK   68  A    between atoms: _178  and  _179
REMARK   69  A    between atoms: _181  and  _183
REMARK   70  A    between atoms: _183  and  _184
REMARK   71  A    between atoms: _183  and  _186
REMARK   72  A    between atoms: _186  and  _187
REMARK   73  A    between atoms: _190  and  _192
REMARK   74  A    between atoms: _192  and  _193
REMARK   75  A    between atoms: _192  and  _195
REMARK   76  A    between atoms: _195  and  _196
REMARK   77  A    between atoms: _196  and  _197
REMARK   78  A    between atoms: _200  and  _202
REMARK   79  A    between atoms: _202  and  _203
REMARK   80  A    between atoms: _205  and  _207
REMARK   81  A    between atoms: _207  and  _208
REMARK   82  A    between atoms: _207  and  _210
REMARK   83  A    between atoms: _210  and  _211
REMARK   84  A    between atoms: _217  and  _219
REMARK   85  A    between atoms: _219  and  _220
REMARK   86  A    between atoms: _219  and  _222
REMARK   87  A    between atoms: _222  and  _223
REMARK   88  A    between atoms: _226  and  _228
REMARK   89  A    between atoms: _228  and  _229
REMARK   90  A    between atoms: _228  and  _231
REMARK   91  A    between atoms: _231  and  _232
REMARK   92  A    between atoms: _232  and  _233
REMARK   93  A    between atoms: _233  and  _234
REMARK   94  A    between atoms: _243  and  _245
REMARK   95  A    between atoms: _245  and  _246
REMARK   96  A    between atoms: _249  and  _251
REMARK   97  A    between atoms: _251  and  _252
REMARK   98  A    between atoms: _251  and  _254
REMARK   99  A    between atoms: _254  and  _255
REMARK  100  A    between atoms: _258  and  _260
REMARK  101  A    between atoms: _260  and  _261
REMARK  102  A    between atoms: _260  and  _263
REMARK  103  A    between atoms: _263  and  _264
REMARK  104  A    between atoms: _264  and  _265
REMARK  105  A    between atoms: _265  and  _266
REMARK  106  A    between atoms: _275  and  _277
REMARK  107  A    between atoms: _277  and  _278
REMARK  108  A    between atoms: _277  and  _280
REMARK  109  A    between atoms: _280  and  _281
REMARK  110  A    between atoms: _291  and  _293
REMARK  111  A    between atoms: _293  and  _294
REMARK  112  A    between atoms: _293  and  _296
REMARK  113  A    between atoms: _296  and  _297
REMARK  114  A    between atoms: _303  and  _305
REMARK  115  A    between atoms: _305  and  _306
REMARK  116  A    between atoms: _305  and  _308
REMARK  117  A    between atoms: _308  and  _309
REMARK  118  A    between atoms: _312  and  _314
REMARK  119  A    between atoms: _314  and  _315
REMARK  120  A    between atoms: _314  and  _317
REMARK  121  A    between atoms: _320  and  _322
REMARK  122  A    between atoms: _322  and  _323
REMARK  123  A    between atoms: _322  and  _325
REMARK  124  A    between atoms: _328  and  _330
REMARK  125  A    between atoms: _330  and  _331
REMARK  126  A    between atoms: _330  and  _333
REMARK  127  A    between atoms: _333  and  _334
REMARK  128  A    between atoms: _339  and  _341
REMARK  129  A    between atoms: _341  and  _342
REMARK  130  A    between atoms: _341  and  _344
REMARK  131  A    between atoms: _344  and  _345
REMARK  132  A    between atoms: _348  and  _350
REMARK  133  A    between atoms: _350  and  _351
REMARK  134  A    between atoms: _350  and  _353
REMARK  135  A    between atoms: _353  and  _354
REMARK  136  A    between atoms: _359  and  _361
REMARK  137  A    between atoms: _361  and  _362
REMARK  138  A    between atoms: _361  and  _364
REMARK  139  A    between atoms: _364  and  _365
REMARK  140  A    between atoms: _368  and  _370
REMARK  141  A    between atoms: _370  and  _371
REMARK  142  A    between atoms: _370  and  _373
REMARK  143  A    between atoms: _373  and  _374
REMARK  144  A    between atoms: _379  and  _381
REMARK  145  A    between atoms: _381  and  _382
REMARK  146  A    between atoms: _381  and  _384
REMARK  147  A    between atoms: _384  and  _385
REMARK  148  A    between atoms: _388  and  _390
REMARK  149  A    between atoms: _390  and  _391
REMARK  150  A    between atoms: _390  and  _393
REMARK  151  A    between atoms: _393  and  _394
REMARK  152  A    between atoms: _399  and  _401
REMARK  153  A    between atoms: _401  and  _402
REMARK  154  A    between atoms: _405  and  _407
REMARK  155  A    between atoms: _407  and  _408
REMARK  156  A    between atoms: _411  and  _413
REMARK  157  A    between atoms: _413  and  _414
REMARK  158  A    between atoms: _417  and  _419
REMARK  159  A    between atoms: _419  and  _420
REMARK  160  A    between atoms: _419  and  _422
REMARK  161  A    between atoms: _422  and  _423
REMARK  162  A    between atoms: _423  and  _424
REMARK  163  A    between atoms: _424  and  _425
REMARK  164  A    between atoms: _425  and  _426
REMARK  165  A    between atoms: _430  and  _432
REMARK  166  A    between atoms: _432  and  _433
REMARK  167  A    between atoms: _436  and  _438
REMARK  168  A    between atoms: _438  and  _439
REMARK  169  A    between atoms: _441  and  _443
REMARK  170  A    between atoms: _443  and  _444
REMARK  171  A    between atoms: _443  and  _446
REMARK  172  A    between atoms: _446  and  _447
REMARK  173  A    between atoms: _450  and  _452
REMARK  174  A    between atoms: _452  and  _453
REMARK  175  A    between atoms: _452  and  _455
REMARK  176  A    between atoms: _455  and  _456
REMARK  177  A    between atoms: _456  and  _457
REMARK  178  A    between atoms: _460  and  _462
REMARK  179  A    between atoms: _462  and  _463
REMARK  180  A    between atoms: _465  and  _467
REMARK  181  A    between atoms: _467  and  _468
REMARK  182  A    between atoms: _467  and  _470
REMARK  183  A    between atoms: _470  and  _471
REMARK  184  A    between atoms: _477  and  _479
REMARK  185  A    between atoms: _479  and  _480
REMARK  186  A    between atoms: _479  and  _482
REMARK  187  A    between atoms: _482  and  _483
REMARK  188  A    between atoms: _486  and  _488
REMARK  189  A    between atoms: _488  and  _489
REMARK  190  A    between atoms: _488  and  _491
REMARK  191  A    between atoms: _491  and  _492
REMARK  192  A    between atoms: _492  and  _493
REMARK  193  A    between atoms: _493  and  _494
REMARK  194  A    between atoms: _503  and  _505
REMARK  195  A    between atoms: _505  and  _506
REMARK  196  A    between atoms: _509  and  _511
REMARK  197  A    between atoms: _511  and  _512
REMARK  198  A    between atoms: _511  and  _514
REMARK  199  A    between atoms: _514  and  _515
REMARK                            x       y       z     vdW  Elec       q    Type
REMARK                         _______ _______ _______ _____ _____    ______ ____
ROOT
ATOM      1  NE  ARG A   1       4.918  12.827  38.817  0.00  0.00    -0.265 N 
ATOM      2  HE  ARG A   1       4.888  13.688  39.400  0.00  0.00    +0.259 HD
ATOM      3  CZ  ARG A   1       5.868  12.756  37.898  0.00  0.00    +0.342 C 
ATOM      4  NH2 ARG A   1       6.698  13.776  37.781  0.00  0.00    -0.292 N 
ATOM      5 HH21 ARG A   1       6.595  14.604  38.401  0.00  0.00    +0.255 HD
ATOM      6 HH22 ARG A   1       7.455  13.751  37.069  0.00  0.00    +0.255 HD
ATOM      7  NH1 ARG A   1       6.052  11.672  37.157  0.00  0.00    -0.292 N 
ATOM      8 HH11 ARG A   1       5.439  10.842  37.289  0.00  0.00    +0.255 HD
ATOM      9 HH12 ARG A   1       6.809  11.652  36.444  0.00  0.00    +0.255 HD
ENDROOT
BRANCH   1  10
ATOM     10  CD  ARG A   1       3.908  11.806  39.087  0.00  0.00    +0.174 C 
BRANCH  10  11
ATOM     11  CG  ARG A   1       3.361  11.920  40.532  0.00  0.00    +0.045 C 
BRANCH  11  12
ATOM     12  CB  ARG A   1       2.072  11.179  40.706  0.00  0.00    +0.029 C 
BRANCH  12  13
ATOM     13  CA  ARG A   1       1.753  11.009  42.187  0.00  0.00    +0.133 C 
BRANCH  13  14
ATOM     14  N   ARG A   1       2.616   9.994  42.827  0.00  0.00    -0.239 NA
ATOM     15  H   ARG A   1       3.245   9.411  42.239  0.00  0.00    +0.142 HD
ENDBRANCH  13  14
BRANCH  13  16
ATOM     16  C   ARG A   1       0.328  10.704  42.393  0.00  0.00    +0.224 C 
ATOM     17  O   ARG A   1      -0.445  11.650  42.757  0.00  0.00    -0.287 OA
ENDBRANCH  13  16
ENDBRANCH  12  13
ENDBRANCH  11  12
ENDBRANCH  10  11
ENDBRANCH   1  10
TORSDOF 6
REMARK  Name = ../refined-set-2016/4bny/4bny_pocket.pdb
REMARK  199 active torsions:
REMARK  status: ('A' for Active; 'I' for Inactive)
REMARK    1  A    between atoms: _1  and  _3
REMARK    2  A    between atoms: _3  and  _4
REMARK    3  A    between atoms: _3  and  _6
REMARK    4  A    between atoms: _6  and  _7
REMARK    5  A    between atoms: _17  and  _19
REMARK    6  A    between atoms: _19  and  _20
REMARK    7  A    between atoms: _19  and  _22
REMARK    8  A    between atoms: _22  and  _23
REMARK    9  A    between atoms: _29  and  _31
REMARK   10  A    between atoms: _31  and  _32
REMARK   11  A    between atoms: _31  and  _34
REMARK   12  A    between atoms: _34  and  _35
REMARK   13  A    between atoms: _38  and  _40
REMARK   14  A    between atoms: _40  and  _41
REMARK   15  A    between atoms: _40  and  _43
REMARK   16  A    between atoms: _46  and  _48
REMARK   17  A    between atoms: _48  and  _49
REMARK   18  A    between atoms: _48  and  _51
REMARK   19  A    between atoms: _54  and  _56
REMARK   20  A    between atoms: _56  and  _57
REMARK   21  A    between atoms: _56  and  _59
REMARK   22  A    between atoms: _59  and  _60
REMARK   23  A    between atoms: _65  and  _67
REMARK   24  A    between atoms: _67  and  _68
REMARK   25  A    between atoms: _67  and  _70
REMARK   26  A    between atoms: _70  and  _71
REMARK   27  A    between atoms: _74  and  _76
REMARK   28  A    between atoms: _76  and  _77
REMARK   29  A    between atoms: _76  and  _79
REMARK   30  A    between atoms: _79  and  _80
REMARK   31  A    between atoms: _85  and  _87
REMARK   32  A    between atoms: _87  and  _88
REMARK   33  A    between atoms: _87  and  _90
REMARK   34  A    between atoms: _90  and  _91
REMARK   35  A    between atoms: _94  and  _96
REMARK   36  A    between atoms: _96  and  _97
REMARK   37  A    between atoms: _96  and  _99
REMARK   38  A    between atoms: _99  and  _100
REMARK   39  A    between atoms: _105  and  _107
REMARK   40  A    between atoms: _107  and  _108
REMARK   41  A    between atoms: _107  and  _110
REMARK   42  A    between atoms: _110  and  _111
REMARK   43  A    between atoms: _116  and  _117
REMARK   44  A    between atoms: _119  and  _121
REMARK   45  A    between atoms: _121  and  _122
REMARK   46  A    between atoms: _121  and  _124
REMARK   47  A    between atoms: _124  and  _125
REMARK   48  A    between atoms: _128  and  _130
REMARK   49  A    between atoms: _130  and  _131
REMARK   50  A    between atoms: _130  and  _133
REMARK   51  A    between atoms: _133  and  _134
REMARK   52  A    between atoms: _139  and  _141
REMARK   53  A    between atoms: _141  and  _142
REMARK   54  A    between atoms: _145  and  _147
REMARK   55  A    between atoms: _147  and  _148
REMARK   56  A    between atoms: _151  and  _153
REMARK   57  A    between atoms: _153  and  _154
REMARK   58  A    between atoms: _157  and  _159
REMARK   59  A    between atoms: _159  and  _160
REMARK   60  A    between atoms: _159  and  _162
REMARK   61  A    between atoms: _162  and  _163
REMARK   62  A    between atoms: _163  and  _164
REMARK   63  A    between atoms: _164  and  _165
REMARK   64  A    between atoms: _165  and  _166
REMARK   65  A    between atoms: _170  and  _172
REMARK   66  A    between atoms: _172  and  _173
REMARK   67  A    between atoms: _176  and  _178
REMARK   68  A    between atoms: _178  and  _179
REMARK   69  A    between atoms: _181  and  _183
REMARK   70  A    between atoms: _183  and  _184
REMARK   71  A    between atoms: _183  and  _186
REMARK   72  A    between atoms: _186  and  _187
REMARK   73  A    between atoms: _190  and  _192
REMARK   74  A    between atoms: _192  and  _193
REMARK   75  A    between atoms: _192  and  _195
REMARK   76  A    between atoms: _195  and  _196
REMARK   77  A    between atoms: _196  and  _197
REMARK   78  A    between atoms: _200  and  _202
REMARK   79  A    between atoms: _202  and  _203
REMARK   80  A    between atoms: _205  and  _207
REMARK   81  A    between atoms: _207  and  _208
REMARK   82  A    between atoms: _207  and  _210
REMARK   83  A    between atoms: _210  and  _211
REMARK   84  A    between atoms: _217  and  _219
REMARK   85  A    between atoms: _219  and  _220
REMARK   86  A    between atoms: _219  and  _222
REMARK   87  A    between atoms: _222  and  _223
REMARK   88  A    between atoms: _226  and  _228
REMARK   89  A    between atoms: _228  and  _229
REMARK   90  A    between atoms: _228  and  _231
REMARK   91  A    between atoms: _231  and  _232
REMARK   92  A    between atoms: _232  and  _233
REMARK   93  A    between atoms: _233  and  _234
REMARK   94  A    between atoms: _243  and  _245
REMARK   95  A    between atoms: _245  and  _246
REMARK   96  A    between atoms: _249  and  _251
REMARK   97  A    between atoms: _251  and  _252
REMARK   98  A    between atoms: _251  and  _254
REMARK   99  A    between atoms: _254  and  _255
REMARK  100  A    between atoms: _258  and  _260
REMARK  101  A    between atoms: _260  and  _261
REMARK  102  A    between atoms: _260  and  _263
REMARK  103  A    between atoms: _263  and  _264
REMARK  104  A    between atoms: _264  and  _265
REMARK  105  A    between atoms: _265  and  _266
REMARK  106  A    between atoms: _275  and  _277
REMARK  107  A    between atoms: _277  and  _278
REMARK  108  A    between atoms: _277  and  _280
REMARK  109  A    between atoms: _280  and  _281
REMARK  110  A    between atoms: _291  and  _293
REMARK  111  A    between atoms: _293  and  _294
REMARK  112  A    between atoms: _293  and  _296
REMARK  113  A    between atoms: _296  and  _297
REMARK  114  A    between atoms: _303  and  _305
REMARK  115  A    between atoms: _305  and  _306
REMARK  116  A    between atoms: _305  and  _308
REMARK  117  A    between atoms: _308  and  _309
REMARK  118  A    between atoms: _312  and  _314
REMARK  119  A    between atoms: _314  and  _315
REMARK  120  A    between atoms: _314  and  _317
REMARK  121  A    between atoms: _320  and  _322
REMARK  122  A    between atoms: _322  and  _323
REMARK  123  A    between atoms: _322  and  _325
REMARK  124  A    between atoms: _328  and  _330
REMARK  125  A    between atoms: _330  and  _331
REMARK  126  A    between atoms: _330  and  _333
REMARK  127  A    between atoms: _333  and  _334
REMARK  128  A    between atoms: _339  and  _341
REMARK  129  A    between atoms: _341  and  _342
REMARK  130  A    between atoms: _341  and  _344
REMARK  131  A    between atoms: _344  and  _345
REMARK  132  A    between atoms: _348  and  _350
REMARK  133  A    between atoms: _350  and  _351
REMARK  134  A    between atoms: _350  and  _353
REMARK  135  A    between atoms: _353  and  _354
REMARK  136  A    between atoms: _359  and  _361
REMARK  137  A    between atoms: _361  and  _362
REMARK  138  A    between atoms: _361  and  _364
REMARK  139  A    between atoms: _364  and  _365
REMARK  140  A    between atoms: _368  and  _370
REMARK  141  A    between atoms: _370  and  _371
REMARK  142  A    between atoms: _370  and  _373
REMARK  143  A    between atoms: _373  and  _374
REMARK  144  A    between atoms: _379  and  _381
REMARK  145  A    between atoms: _381  and  _382
REMARK  146  A    between atoms: _381  and  _384
REMARK  147  A    between atoms: _384  and  _385
REMARK  148  A    between atoms: _388  and  _390
REMARK  149  A    between atoms: _390  and  _391
REMARK  150  A    between atoms: _390  and  _393
REMARK  151  A    between atoms: _393  and  _394
REMARK  152  A    between atoms: _399  and  _401
REMARK  153  A    between atoms: _401  and  _402
REMARK  154  A    between atoms: _405  and  _407
REMARK  155  A    between atoms: _407  and  _408
REMARK  156  A    between atoms: _411  and  _413
REMARK  157  A    between atoms: _413  and  _414
REMARK  158  A    between atoms: _417  and  _419
REMARK  159  A    between atoms: _419  and  _420
REMARK  160  A    between atoms: _419  and  _422
REMARK  161  A    between atoms: _422  and  _423
REMARK  162  A    between atoms: _423  and  _424
REMARK  163  A    between atoms: _424  and  _425
REMARK  164  A    between atoms: _425  and  _426
REMARK  165  A    between atoms: _430  and  _432
REMARK  166  A    between atoms: _432  and  _433
REMARK  167  A    between atoms: _436  and  _438
REMARK  168  A    between atoms: _438  and  _439
REMARK  169  A    between atoms: _441  and  _443
REMARK  170  A    between atoms: _443  and  _444
REMARK  171  A    between atoms: _443  and  _446
REMARK  172  A    between atoms: _446  and  _447
REMARK  173  A    between atoms: _450  and  _452
REMARK  174  A    between atoms: _452  and  _453
REMARK  175  A    between atoms: _452  and  _455
REMARK  176  A    between atoms: _455  and  _456
REMARK  177  A    between atoms: _456  and  _457
REMARK  178  A    between atoms: _460  and  _462
REMARK  179  A    between atoms: _462  and  _463
REMARK  180  A    between atoms: _465  and  _467
REMARK  181  A    between atoms: _467  and  _468
REMARK  182  A    between atoms: _467  and  _470
REMARK  183  A    between atoms: _470  and  _471
REMARK  184  A    between atoms: _477  and  _479
REMARK  185  A    between atoms: _479  and  _480
REMARK  186  A    between atoms: _479  and  _482
REMARK  187  A    between atoms: _482  and  _483
REMARK  188  A    between atoms: _486  and  _488
REMARK  189  A    between atoms: _488  and  _489
REMARK  190  A    between atoms: _488  and  _491
REMARK  191  A    between atoms: _491  and  _492
REMARK  192  A    between atoms: _492  and  _493
REMARK  193  A    between atoms: _493  and  _494
REMARK  194  A    between atoms: _503  and  _505
REMARK  195  A    between atoms: _505  and  _506
REMARK  196  A    between atoms: _509  and  _511
REMARK  197  A    between atoms: _511  and  _512
REMARK  198  A    between atoms: _511  and  _514
REMARK  199  A    between atoms: _514  and  _515
REMARK                            x       y       z     vdW  Elec       q    Type
REMARK                         _______ _______ _______ _____ _____    ______ ____
ROOT
ATOM      1  C   VAL A   5       2.081  -1.258  31.226  0.00  0.00    +0.241 C 
ATOM      2  N   ASN A   6       1.449  -1.976  32.136  0.00  0.00    -0.297 N 
ATOM      3  H   ASN A   6       0.846  -1.485  32.826  0.00  0.00    +0.150 HD
ATOM      4  O   VAL A   5       2.820  -1.786  30.386  0.00  0.00    -0.273 OA
ENDROOT
BRANCH   2   5
ATOM      5  CA  ASN A   6       1.559  -3.420  32.215  0.00  0.00    +0.158 C 
BRANCH   5   6
ATOM      6  C   ASN A   6       1.084  -4.073  30.897  0.00  0.00    +0.241 C 
ATOM      7  N   THR A   7      -0.049  -3.581  30.395  0.00  0.00    -0.295 N 
ATOM      8  H   THR A   7      -0.531  -2.802  30.888  0.00  0.00    +0.150 HD
ATOM      9  O   ASN A   6       1.733  -4.951  30.328  0.00  0.00    -0.273 OA
BRANCH   7  10
ATOM     10  CA  THR A   7      -0.622  -4.114  29.172  0.00  0.00    +0.176 C 
BRANCH  10  11
ATOM     11  C   THR A   7       0.314  -3.810  27.986  0.00  0.00    +0.243 C 
ATOM     12  N   ASN A   8       0.738  -2.574  27.899  0.00  0.00    -0.297 N 
ATOM     13  H   ASN A   8       0.460  -1.881  28.623  0.00  0.00    +0.150 HD
ATOM     14  O   THR A   7       0.657  -4.714  27.219  0.00  0.00    -0.273 OA
BRANCH  12  15
ATOM     15  CA  ASN A   8       1.600  -2.159  26.792  0.00  0.00    +0.158 C 
BRANCH  15  16
ATOM     16  C   ASN A   8       2.944  -2.900  26.773  0.00  0.00    +0.241 C 
ATOM     17  N   LEU A   9       3.591  -3.062  27.934  0.00  0.00    -0.297 N 
ATOM     18  H   LEU A   9       3.180  -2.712  28.823  0.00  0.00    +0.150 HD
ATOM     19  O   ASN A   8       3.367  -3.359  25.698  0.00  0.00    -0.273 OA
BRANCH  17  20
ATOM     20  CA  LEU A   9       4.907  -3.751  27.929  0.00  0.00    +0.149 C 
BRANCH  20  21
ATOM     21  C   LEU A   9       4.765  -5.227  27.717  0.00  0.00    +0.241 C 
ATOM     22  N   ASN A  10       3.685  -5.810  28.209  0.00  0.00    -0.298 N 
ATOM     23  H   ASN A  10       3.029  -5.277  28.816  0.00  0.00    +0.150 HD
ATOM     24  O   LEU A   9       5.572  -5.851  26.992  0.00  0.00    -0.273 OA
BRANCH  22  25
ATOM     25  CA  ASN A  10       3.426  -7.201  27.892  0.00  0.00    +0.146 C 
BRANCH  25  26
ATOM     26  C   ASN A  10       3.171  -7.441  26.415  0.00  0.00    +0.227 C 
ATOM     27  O   ASN A  10       3.670  -8.441  25.869  0.00  0.00    -0.286 OA
ENDBRANCH  25  26
BRANCH  25  28
ATOM     28  CB  ASN A  10       2.283  -7.774  28.785  0.00  0.00    +0.112 C 
BRANCH  28  29
ATOM     29  CG  ASN A  10       2.789  -8.270  30.107  0.00  0.00    +0.222 C 
ATOM     30  ND2 ASN A  10       2.771  -7.452  31.094  0.00  0.00    -0.329 N 
ATOM     31 HD21 ASN A  10       3.132  -7.750  32.023  0.00  0.00    +0.145 HD
ATOM     32 HD22 ASN A  10       2.395  -6.491  30.966  0.00  0.00    +0.145 HD
ATOM     33  OD1 ASN A  10       3.219  -9.395  30.221  0.00  0.00    -0.275 OA
ENDBRANCH  28  29
ENDBRANCH  25  28
ENDBRANCH  22  25
ENDBRANCH  20  21
BRANCH  20  34
ATOM     34  CB  LEU A   9       5.722  -3.421  29.164  0.00  0.00    +0.029 C 
BRANCH  34  35
ATOM     35  CG  LEU A   9       6.055  -1.945  29.306  0.00  0.00    +0.002 C 
ATOM     36  CD2 LEU A   9       6.840  -1.800  30.561  0.00  0.00    +0.000 C 
ATOM     37  CD1 LEU A   9       6.840  -1.411  28.114  0.00  0.00    +0.000 C 
ENDBRANCH  34  35
ENDBRANCH  20  34
ENDBRANCH  17  20
ENDBRANCH  15  16
BRANCH  15  38
ATOM     38  CB  ASN A   8       1.744  -0.665  26.735  0.00  0.00    +0.114 C 
BRANCH  38  39
ATOM     39  CG  ASN A   8       0.485   0.014  26.131  0.00  0.00    +0.222 C 
ATOM     40  ND2 ASN A   8       0.343   1.262  26.389  0.00  0.00    -0.329 N 
ATOM     41 HD21 ASN A   8       1.064   1.763  26.946  0.00  0.00    +0.145 HD
ATOM     42 HD22 ASN A   8      -0.493   1.773  26.041  0.00  0.00    +0.145 HD
ATOM     43  OD1 ASN A   8      -0.370  -0.642  25.453  0.00  0.00    -0.275 OA
ENDBRANCH  38  39
ENDBRANCH  15  38
ENDBRANCH  12  15
ENDBRANCH  10  11
BRANCH  10  44
ATOM     44  CB  THR A   7      -2.006  -3.506  28.896  0.00  0.00    +0.137 C 
ATOM     45  CG2 THR A   7      -2.574  -4.071  27.603  0.00  0.00    +0.034 C 
BRANCH  44  46
ATOM     46  OG1 THR A   7      -2.887  -3.844  29.978  0.00  0.00    -0.382 OA
ATOM     47  HG1 THR A   7      -2.524  -3.480  30.824  0.00  0.00    +0.210 HD
ENDBRANCH  44  46
ENDBRANCH  10  44
ENDBRANCH   7  10
ENDBRANCH   5   6
BRANCH   5  48
ATOM     48  CB  ASN A   6       0.697  -3.899  33.359  0.00  0.00    +0.114 C 
BRANCH  48  49
ATOM     49  CG  ASN A   6       0.889  -5.330  33.682  0.00  0.00    +0.222 C 
ATOM     50  ND2 ASN A   6      -0.210  -5.978  33.902  0.00  0.00    -0.329 N 
ATOM     51 HD21 ASN A   6      -0.175  -6.960  34.243  0.00  0.00    +0.145 HD
ATOM     52 HD22 ASN A   6      -1.127  -5.517  33.738  0.00  0.00    +0.145 HD
ATOM     53  OD1 ASN A   6       1.989  -5.824  33.858  0.00  0.00    -0.275 OA
ENDBRANCH  48  49
ENDBRANCH   5  48
ENDBRANCH   2   5
BRANCH   1  54
ATOM     54  CA  VAL A   5       1.928   0.259  31.271  0.00  0.00    +0.149 C 
BRANCH  54  56
ATOM     55  C   VAL A   4      -0.360   0.327  30.579  0.00  0.00    +0.241 C 
ATOM     56  N   VAL A   5       0.567   0.638  31.488  0.00  0.00    -0.297 N 
ATOM     57  H   VAL A   5       0.300   1.154  32.351  0.00  0.00    +0.150 HD
ATOM     58  O   VAL A   4      -0.099  -0.281  29.527  0.00  0.00    -0.273 OA
BRANCH  55  59
ATOM     59  CA  VAL A   4      -1.801   0.735  30.882  0.00  0.00    +0.149 C 
BRANCH  59  61
ATOM     60  C   ASP A   3      -2.304  -0.994  32.518  0.00  0.00    +0.241 C 
ATOM     61  N   VAL A   4      -2.223   0.298  32.215  0.00  0.00    -0.297 N 
ATOM     62  H   VAL A   4      -2.463   1.009  32.935  0.00  0.00    +0.150 HD
ATOM     63  O   ASP A   3      -2.046  -1.886  31.714  0.00  0.00    -0.273 OA
BRANCH  60  64
ATOM     64  CA  ASP A   3      -2.702  -1.373  33.972  0.00  0.00    +0.160 C 
BRANCH  64  66
ATOM     65  C   PHE A   2      -0.783  -0.342  35.060  0.00  0.00    +0.241 C 
ATOM     66  N   ASP A   3      -2.105  -0.463  34.946  0.00  0.00    -0.297 N 
ATOM     67  H   ASP A   3      -2.724   0.101  35.563  0.00  0.00    +0.150 HD
ATOM     68  O   PHE A   2      -0.021  -1.021  34.381  0.00  0.00    -0.273 OA
BRANCH  65  69
ATOM     69  CA  PHE A   2      -0.267   0.662  36.091  0.00  0.00    +0.153 C 
BRANCH  69  71
ATOM     70  C   TRP A   1      -0.662   2.729  34.903  0.00  0.00    +0.239 C 
ATOM     71  N   PHE A   2      -0.912   1.977  35.981  0.00  0.00    -0.297 N 
ATOM     72  H   PHE A   2      -1.551   2.317  36.727  0.00  0.00    +0.150 HD
ATOM     73  O   TRP A   1      -0.031   2.281  33.956  0.00  0.00    -0.274 OA
BRANCH  70  74
ATOM     74  CA  TRP A   1      -1.192   4.160  34.840  0.00  0.00    +0.149 C 
BRANCH  74  75
ATOM     75  N   TRP A   1      -2.537   4.191  35.460  0.00  0.00    -0.238 NA
ATOM     76  H   TRP A   1      -2.736   4.879  36.214  0.00  0.00    +0.142 HD
ENDBRANCH  74  75
BRANCH  74  77
ATOM     77  CB  TRP A   1      -0.243   5.151  35.530  0.00  0.00    +0.054 C 
BRANCH  77  78
ATOM     78  CG  TRP A   1      -0.123   4.910  36.977  0.00  0.00    -0.002 A 
ATOM     79  CD1 TRP A   1      -0.954   5.439  37.966  0.00  0.00    +0.068 A 
ATOM     80  NE1 TRP A   1      -0.587   4.948  39.179  0.00  0.00    -0.352 N 
ATOM     81  HE1 TRP A   1      -1.063   5.154  40.080  0.00  0.00    +0.166 HD
ATOM     82  CE2 TRP A   1       0.513   4.135  39.028  0.00  0.00    +0.056 A 
ATOM     83  CZ2 TRP A   1       1.203   3.422  39.974  0.00  0.00    +0.017 A 
ATOM     84  CH2 TRP A   1       2.255   2.659  39.553  0.00  0.00    +0.001 A 
ATOM     85  CZ3 TRP A   1       2.610   2.580  38.194  0.00  0.00    +0.000 A 
ATOM     86  CE3 TRP A   1       1.914   3.258  37.255  0.00  0.00    +0.001 A 
ATOM     87  CD2 TRP A   1       0.816   4.057  37.665  0.00  0.00    +0.013 A 
ENDBRANCH  77  78
ENDBRANCH  74  77
ENDBRANCH  70  74
ENDBRANCH  69  71
BRANCH  69  88
ATOM     88  CB  PHE A   2      -0.399   0.055  37.506  0.00  0.00    +0.055 C 
BRANCH  88  89
ATOM     89  CG  PHE A   2       0.377  -1.223  37.681  0.00  0.00    -0.020 A 
ATOM     90  CD2 PHE A   2       1.723  -1.192  37.943  0.00  0.00    -0.004 A 
ATOM     91  CE2 PHE A   2       2.434  -2.364  38.057  0.00  0.00    -0.000 A 
ATOM     92  CZ  PHE A   2       1.825  -3.578  37.875  0.00  0.00    -0.000 A 
ATOM     93  CE1 PHE A   2       0.481  -3.633  37.586  0.00  0.00    -0.000 A 
ATOM     94  CD1 PHE A   2      -0.231  -2.459  37.480  0.00  0.00    -0.004 A 
ENDBRANCH  88  89
ENDBRANCH  69  88
ENDBRANCH  65  69
ENDBRANCH  64  66
BRANCH  64  95
ATOM     95  CB  ASP A   3      -4.229  -1.576  34.186  0.00  0.00    +0.143 C 
BRANCH  95  96
ATOM     96  CG  ASP A   3      -4.530  -2.347  35.475  0.00  0.00    +0.367 C 
ATOM     97  OD2 ASP A   3      -5.522  -2.014  36.169  0.00  0.00    -0.246 OA
ATOM     98  OD1 ASP A   3      -3.758  -3.272  35.831  0.00  0.00    -0.246 OA
ENDBRANCH  95  96
ENDBRANCH  64  95
ENDBRANCH  60  64
ENDBRANCH  59  61
BRANCH  59  99
ATOM     99  CB  VAL A   4      -2.005   2.249  30.684  0.00  0.00    +0.027 C 
ATOM    100  CG2 VAL A   4      -3.520   2.533  30.650  0.00  0.00    +0.002 C 
ATOM    101  CG1 VAL A   4      -1.359   2.737  29.403  0.00  0.00    +0.002 C 
ENDBRANCH  59  99
ENDBRANCH  55  59
ENDBRANCH  54  56
BRANCH  54 102
ATOM    102  CB  VAL A   5       2.875   0.934  32.262  0.00  0.00    +0.027 C 
ATOM    103  CG2 VAL A   5       2.778   2.449  32.157  0.00  0.00    +0.002 C 
ATOM    104  CG1 VAL A   5       4.284   0.499  31.998  0.00  0.00    +0.002 C 
ENDBRANCH  54 102
ENDBRANCH   1  54
TORSDOF 38
REMARK  Name = ../refined-set-2016/4bny/4bny_pocket.pdb
REMARK  199 active torsions:
REMARK  status: ('A' for Active; 'I' for Inactive)
REMARK    1  A    between atoms: _1  and  _3
REMARK    2  A    between atoms: _3  and  _4
REMARK    3  A    between atoms: _3  and  _6
REMARK    4  A    between atoms: _6  and  _7
REMARK    5  A    between atoms: _17  and  _19
REMARK    6  A    between atoms: _19  and  _20
REMARK    7  A    between atoms: _19  and  _22
REMARK    8  A    between atoms: _22  and  _23
REMARK    9  A    between atoms: _29  and  _31
REMARK   10  A    between atoms: _31  and  _32
REMARK   11  A    between atoms: _31  and  _34
REMARK   12  A    between atoms: _34  and  _35
REMARK   13  A    between atoms: _38  and  _40
REMARK   14  A    between atoms: _40  and  _41
REMARK   15  A    between atoms: _40  and  _43
REMARK   16  A    between atoms: _46  and  _48
REMARK   17  A    between atoms: _48  and  _49
REMARK   18  A    between atoms: _48  and  _51
REMARK   19  A    between atoms: _54  and  _56
REMARK   20  A    between atoms: _56  and  _57
REMARK   21  A    between atoms: _56  and  _59
REMARK   22  A    between atoms: _59  and  _60
REMARK   23  A    between atoms: _65  and  _67
REMARK   24  A    between atoms: _67  and  _68
REMARK   25  A    between atoms: _67  and  _70
REMARK   26  A    between atoms: _70  and  _71
REMARK   27  A    between atoms: _74  and  _76
REMARK   28  A    between atoms: _76  and  _77
REMARK   29  A    between atoms: _76  and  _79
REMARK   30  A    between atoms: _79  and  _80
REMARK   31  A    between atoms: _85  and  _87
REMARK   32  A    between atoms: _87  and  _88
REMARK   33  A    between atoms: _87  and  _90
REMARK   34  A    between atoms: _90  and  _91
REMARK   35  A    between atoms: _94  and  _96
REMARK   36  A    between atoms: _96  and  _97
REMARK   37  A    between atoms: _96  and  _99
REMARK   38  A    between atoms: _99  and  _100
REMARK   39  A    between atoms: _105  and  _107
REMARK   40  A    between atoms: _107  and  _108
REMARK   41  A    between atoms: _107  and  _110
REMARK   42  A    between atoms: _110  and  _111
REMARK   43  A    between atoms: _116  and  _117
REMARK   44  A    between atoms: _119  and  _121
REMARK   45  A    between atoms: _121  and  _122
REMARK   46  A    between atoms: _121  and  _124
REMARK   47  A    between atoms: _124  and  _125
REMARK   48  A    between atoms: _128  and  _130
REMARK   49  A    between atoms: _130  and  _131
REMARK   50  A    between atoms: _130  and  _133
REMARK   51  A    between atoms: _133  and  _134
REMARK   52  A    between atoms: _139  and  _141
REMARK   53  A    between atoms: _141  and  _142
REMARK   54  A    between atoms: _145  and  _147
REMARK   55  A    between atoms: _147  and  _148
REMARK   56  A    between atoms: _151  and  _153
REMARK   57  A    between atoms: _153  and  _154
REMARK   58  A    between atoms: _157  and  _159
REMARK   59  A    between atoms: _159  and  _160
REMARK   60  A    between atoms: _159  and  _162
REMARK   61  A    between atoms: _162  and  _163
REMARK   62  A    between atoms: _163  and  _164
REMARK   63  A    between atoms: _164  and  _165
REMARK   64  A    between atoms: _165  and  _166
REMARK   65  A    between atoms: _170  and  _172
REMARK   66  A    between atoms: _172  and  _173
REMARK   67  A    between atoms: _176  and  _178
REMARK   68  A    between atoms: _178  and  _179
REMARK   69  A    between atoms: _181  and  _183
REMARK   70  A    between atoms: _183  and  _184
REMARK   71  A    between atoms: _183  and  _186
REMARK   72  A    between atoms: _186  and  _187
REMARK   73  A    between atoms: _190  and  _192
REMARK   74  A    between atoms: _192  and  _193
REMARK   75  A    between atoms: _192  and  _195
REMARK   76  A    between atoms: _195  and  _196
REMARK   77  A    between atoms: _196  and  _197
REMARK   78  A    between atoms: _200  and  _202
REMARK   79  A    between atoms: _202  and  _203
REMARK   80  A    between atoms: _205  and  _207
REMARK   81  A    between atoms: _207  and  _208
REMARK   82  A    between atoms: _207  and  _210
REMARK   83  A    between atoms: _210  and  _211
REMARK   84  A    between atoms: _217  and  _219
REMARK   85  A    between atoms: _219  and  _220
REMARK   86  A    between atoms: _219  and  _222
REMARK   87  A    between atoms: _222  and  _223
REMARK   88  A    between atoms: _226  and  _228
REMARK   89  A    between atoms: _228  and  _229
REMARK   90  A    between atoms: _228  and  _231
REMARK   91  A    between atoms: _231  and  _232
REMARK   92  A    between atoms: _232  and  _233
REMARK   93  A    between atoms: _233  and  _234
REMARK   94  A    between atoms: _243  and  _245
REMARK   95  A    between atoms: _245  and  _246
REMARK   96  A    between atoms: _249  and  _251
REMARK   97  A    between atoms: _251  and  _252
REMARK   98  A    between atoms: _251  and  _254
REMARK   99  A    between atoms: _254  and  _255
REMARK  100  A    between atoms: _258  and  _260
REMARK  101  A    between atoms: _260  and  _261
REMARK  102  A    between atoms: _260  and  _263
REMARK  103  A    between atoms: _263  and  _264
REMARK  104  A    between atoms: _264  and  _265
REMARK  105  A    between atoms: _265  and  _266
REMARK  106  A    between atoms: _275  and  _277
REMARK  107  A    between atoms: _277  and  _278
REMARK  108  A    between atoms: _277  and  _280
REMARK  109  A    between atoms: _280  and  _281
REMARK  110  A    between atoms: _291  and  _293
REMARK  111  A    between atoms: _293  and  _294
REMARK  112  A    between atoms: _293  and  _296
REMARK  113  A    between atoms: _296  and  _297
REMARK  114  A    between atoms: _303  and  _305
REMARK  115  A    between atoms: _305  and  _306
REMARK  116  A    between atoms: _305  and  _308
REMARK  117  A    between atoms: _308  and  _309
REMARK  118  A    between atoms: _312  and  _314
REMARK  119  A    between atoms: _314  and  _315
REMARK  120  A    between atoms: _314  and  _317
REMARK  121  A    between atoms: _320  and  _322
REMARK  122  A    between atoms: _322  and  _323
REMARK  123  A    between atoms: _322  and  _325
REMARK  124  A    between atoms: _328  and  _330
REMARK  125  A    between atoms: _330  and  _331
REMARK  126  A    between atoms: _330  and  _333
REMARK  127  A    between atoms: _333  and  _334
REMARK  128  A    between atoms: _339  and  _341
REMARK  129  A    between atoms: _341  and  _342
REMARK  130  A    between atoms: _341  and  _344
REMARK  131  A    between atoms: _344  and  _345
REMARK  132  A    between atoms: _348  and  _350
REMARK  133  A    between atoms: _350  and  _351
REMARK  134  A    between atoms: _350  and  _353
REMARK  135  A    between atoms: _353  and  _354
REMARK  136  A    between atoms: _359  and  _361
REMARK  137  A    between atoms: _361  and  _362
REMARK  138  A    between atoms: _361  and  _364
REMARK  139  A    between atoms: _364  and  _365
REMARK  140  A    between atoms: _368  and  _370
REMARK  141  A    between atoms: _370  and  _371
REMARK  142  A    between atoms: _370  and  _373
REMARK  143  A    between atoms: _373  and  _374
REMARK  144  A    between atoms: _379  and  _381
REMARK  145  A    between atoms: _381  and  _382
REMARK  146  A    between atoms: _381  and  _384
REMARK  147  A    between atoms: _384  and  _385
REMARK  148  A    between atoms: _388  and  _390
REMARK  149  A    between atoms: _390  and  _391
REMARK  150  A    between atoms: _390  and  _393
REMARK  151  A    between atoms: _393  and  _394
REMARK  152  A    between atoms: _399  and  _401
REMARK  153  A    between atoms: _401  and  _402
REMARK  154  A    between atoms: _405  and  _407
REMARK  155  A    between atoms: _407  and  _408
REMARK  156  A    between atoms: _411  and  _413
REMARK  157  A    between atoms: _413  and  _414
REMARK  158  A    between atoms: _417  and  _419
REMARK  159  A    between atoms: _419  and  _420
REMARK  160  A    between atoms: _419  and  _422
REMARK  161  A    between atoms: _422  and  _423
REMARK  162  A    between atoms: _423  and  _424
REMARK  163  A    between atoms: _424  and  _425
REMARK  164  A    between atoms: _425  and  _426
REMARK  165  A    between atoms: _430  and  _432
REMARK  166  A    between atoms: _432  and  _433
REMARK  167  A    between atoms: _436  and  _438
REMARK  168  A    between atoms: _438  and  _439
REMARK  169  A    between atoms: _441  and  _443
REMARK  170  A    between atoms: _443  and  _444
REMARK  171  A    between atoms: _443  and  _446
REMARK  172  A    between atoms: _446  and  _447
REMARK  173  A    between atoms: _450  and  _452
REMARK  174  A    between atoms: _452  and  _453
REMARK  175  A    between atoms: _452  and  _455
REMARK  176  A    between atoms: _455  and  _456
REMARK  177  A    between atoms: _456  and  _457
REMARK  178  A    between atoms: _460  and  _462
REMARK  179  A    between atoms: _462  and  _463
REMARK  180  A    between atoms: _465  and  _467
REMARK  181  A    between atoms: _467  and  _468
REMARK  182  A    between atoms: _467  and  _470
REMARK  183  A    between atoms: _470  and  _471
REMARK  184  A    between atoms: _477  and  _479
REMARK  185  A    between atoms: _479  and  _480
REMARK  186  A    between atoms: _479  and  _482
REMARK  187  A    between atoms: _482  and  _483
REMARK  188  A    between atoms: _486  and  _488
REMARK  189  A    between atoms: _488  and  _489
REMARK  190  A    between atoms: _488  and  _491
REMARK  191  A    between atoms: _491  and  _492
REMARK  192  A    between atoms: _492  and  _493
REMARK  193  A    between atoms: _493  and  _494
REMARK  194  A    between atoms: _503  and  _505
REMARK  195  A    between atoms: _505  and  _506
REMARK  196  A    between atoms: _509  and  _511
REMARK  197  A    between atoms: _511  and  _512
REMARK  198  A    between atoms: _511  and  _514
REMARK  199  A    between atoms: _514  and  _515
REMARK                            x       y       z     vdW  Elec       q    Type
REMARK                         _______ _______ _______ _____ _____    ______ ____
ROOT
ATOM      1  C   THR A   1       1.739   9.588  34.629  0.00  0.00    +0.241 C 
ATOM      2  O   THR A   1       2.684   8.846  34.582  0.00  0.00    -0.274 OA
ATOM      3  N   ASN A   2       0.692   9.469  33.814  0.00  0.00    -0.298 N 
ATOM      4  H   ASN A   2      -0.094  10.142  33.919  0.00  0.00    +0.150 HD
ENDROOT
BRANCH   1   5
ATOM      5  CA  THR A   1       1.685  10.724  35.639  0.00  0.00    +0.172 C 
BRANCH   5   6
ATOM      6  N   THR A   1       1.359  12.029  34.997  0.00  0.00    -0.236 NA
ATOM      7  H   THR A   1       0.539  12.572  35.335  0.00  0.00    +0.142 HD
ENDBRANCH   5   6
BRANCH   5   8
ATOM      8  CB  THR A   1       0.675  10.374  36.765  0.00  0.00    +0.135 C 
ATOM      9  CG2 THR A   1       1.045   9.058  37.426  0.00  0.00    +0.034 C 
BRANCH   8  10
ATOM     10  OG1 THR A   1       0.698  11.428  37.727  0.00  0.00    -0.383 OA
ATOM     11  HG1 THR A   1       0.440  12.278  37.290  0.00  0.00    +0.210 HD
ENDBRANCH   8  10
ENDBRANCH   5   8
ENDBRANCH   1   5
BRANCH   3  12
ATOM     12  CA  ASN A   2       0.593   8.459  32.797  0.00  0.00    +0.146 C 
BRANCH  12  13
ATOM     13  C   ASN A   2       1.669   8.548  31.747  0.00  0.00    +0.227 C 
ATOM     14  O   ASN A   2       2.294   7.528  31.446  0.00  0.00    -0.286 OA
ENDBRANCH  12  13
BRANCH  12  15
ATOM     15  CB  ASN A   2      -0.748   8.593  32.080  0.00  0.00    +0.112 C 
BRANCH  15  16
ATOM     16  CG  ASN A   2      -1.926   8.142  32.887  0.00  0.00    +0.222 C 
ATOM     17  ND2 ASN A   2      -1.756   7.851  34.149  0.00  0.00    -0.329 N 
ATOM     18 HD21 ASN A   2      -2.577   7.625  34.746  0.00  0.00    +0.145 HD
ATOM     19 HD22 ASN A   2      -0.799   7.845  34.557  0.00  0.00    +0.145 HD
ATOM     20  OD1 ASN A   2      -3.028   8.162  32.361  0.00  0.00    -0.275 OA
ENDBRANCH  15  16
ENDBRANCH  12  15
ENDBRANCH   3  12
TORSDOF 8
REMARK  Name = ../refined-set-2016/4bny/4bny_pocket.pdb
REMARK  199 active torsions:
REMARK  status: ('A' for Active; 'I' for Inactive)
REMARK    1  A    between atoms: _1  and  _3
REMARK    2  A    between atoms: _3  and  _4
REMARK    3  A    between atoms: _3  and  _6
REMARK    4  A    between atoms: _6  and  _7
REMARK    5  A    between atoms: _17  and  _19
REMARK    6  A    between atoms: _19  and  _20
REMARK    7  A    between atoms: _19  and  _22
REMARK    8  A    between atoms: _22  and  _23
REMARK    9  A    between atoms: _29  and  _31
REMARK   10  A    between atoms: _31  and  _32
REMARK   11  A    between atoms: _31  and  _34
REMARK   12  A    between atoms: _34  and  _35
REMARK   13  A    between atoms: _38  and  _40
REMARK   14  A    between atoms: _40  and  _41
REMARK   15  A    between atoms: _40  and  _43
REMARK   16  A    between atoms: _46  and  _48
REMARK   17  A    between atoms: _48  and  _49
REMARK   18  A    between atoms: _48  and  _51
REMARK   19  A    between atoms: _54  and  _56
REMARK   20  A    between atoms: _56  and  _57
REMARK   21  A    between atoms: _56  and  _59
REMARK   22  A    between atoms: _59  and  _60
REMARK   23  A    between atoms: _65  and  _67
REMARK   24  A    between atoms: _67  and  _68
REMARK   25  A    between atoms: _67  and  _70
REMARK   26  A    between atoms: _70  and  _71
REMARK   27  A    between atoms: _74  and  _76
REMARK   28  A    between atoms: _76  and  _77
REMARK   29  A    between atoms: _76  and  _79
REMARK   30  A    between atoms: _79  and  _80
REMARK   31  A    between atoms: _85  and  _87
REMARK   32  A    between atoms: _87  and  _88
REMARK   33  A    between atoms: _87  and  _90
REMARK   34  A    between atoms: _90  and  _91
REMARK   35  A    between atoms: _94  and  _96
REMARK   36  A    between atoms: _96  and  _97
REMARK   37  A    between atoms: _96  and  _99
REMARK   38  A    between atoms: _99  and  _100
REMARK   39  A    between atoms: _105  and  _107
REMARK   40  A    between atoms: _107  and  _108
REMARK   41  A    between atoms: _107  and  _110
REMARK   42  A    between atoms: _110  and  _111
REMARK   43  A    between atoms: _116  and  _117
REMARK   44  A    between atoms: _119  and  _121
REMARK   45  A    between atoms: _121  and  _122
REMARK   46  A    between atoms: _121  and  _124
REMARK   47  A    between atoms: _124  and  _125
REMARK   48  A    between atoms: _128  and  _130
REMARK   49  A    between atoms: _130  and  _131
REMARK   50  A    between atoms: _130  and  _133
REMARK   51  A    between atoms: _133  and  _134
REMARK   52  A    between atoms: _139  and  _141
REMARK   53  A    between atoms: _141  and  _142
REMARK   54  A    between atoms: _145  and  _147
REMARK   55  A    between atoms: _147  and  _148
REMARK   56  A    between atoms: _151  and  _153
REMARK   57  A    between atoms: _153  and  _154
REMARK   58  A    between atoms: _157  and  _159
REMARK   59  A    between atoms: _159  and  _160
REMARK   60  A    between atoms: _159  and  _162
REMARK   61  A    between atoms: _162  and  _163
REMARK   62  A    between atoms: _163  and  _164
REMARK   63  A    between atoms: _164  and  _165
REMARK   64  A    between atoms: _165  and  _166
REMARK   65  A    between atoms: _170  and  _172
REMARK   66  A    between atoms: _172  and  _173
REMARK   67  A    between atoms: _176  and  _178
REMARK   68  A    between atoms: _178  and  _179
REMARK   69  A    between atoms: _181  and  _183
REMARK   70  A    between atoms: _183  and  _184
REMARK   71  A    between atoms: _183  and  _186
REMARK   72  A    between atoms: _186  and  _187
REMARK   73  A    between atoms: _190  and  _192
REMARK   74  A    between atoms: _192  and  _193
REMARK   75  A    between atoms: _192  and  _195
REMARK   76  A    between atoms: _195  and  _196
REMARK   77  A    between atoms: _196  and  _197
REMARK   78  A    between atoms: _200  and  _202
REMARK   79  A    between atoms: _202  and  _203
REMARK   80  A    between atoms: _205  and  _207
REMARK   81  A    between atoms: _207  and  _208
REMARK   82  A    between atoms: _207  and  _210
REMARK   83  A    between atoms: _210  and  _211
REMARK   84  A    between atoms: _217  and  _219
REMARK   85  A    between atoms: _219  and  _220
REMARK   86  A    between atoms: _219  and  _222
REMARK   87  A    between atoms: _222  and  _223
REMARK   88  A    between atoms: _226  and  _228
REMARK   89  A    between atoms: _228  and  _229
REMARK   90  A    between atoms: _228  and  _231
REMARK   91  A    between atoms: _231  and  _232
REMARK   92  A    between atoms: _232  and  _233
REMARK   93  A    between atoms: _233  and  _234
REMARK   94  A    between atoms: _243  and  _245
REMARK   95  A    between atoms: _245  and  _246
REMARK   96  A    between atoms: _249  and  _251
REMARK   97  A    between atoms: _251  and  _252
REMARK   98  A    between atoms: _251  and  _254
REMARK   99  A    between atoms: _254  and  _255
REMARK  100  A    between atoms: _258  and  _260
REMARK  101  A    between atoms: _260  and  _261
REMARK  102  A    between atoms: _260  and  _263
REMARK  103  A    between atoms: _263  and  _264
REMARK  104  A    between atoms: _264  and  _265
REMARK  105  A    between atoms: _265  and  _266
REMARK  106  A    between atoms: _275  and  _277
REMARK  107  A    between atoms: _277  and  _278
REMARK  108  A    between atoms: _277  and  _280
REMARK  109  A    between atoms: _280  and  _281
REMARK  110  A    between atoms: _291  and  _293
REMARK  111  A    between atoms: _293  and  _294
REMARK  112  A    between atoms: _293  and  _296
REMARK  113  A    between atoms: _296  and  _297
REMARK  114  A    between atoms: _303  and  _305
REMARK  115  A    between atoms: _305  and  _306
REMARK  116  A    between atoms: _305  and  _308
REMARK  117  A    between atoms: _308  and  _309
REMARK  118  A    between atoms: _312  and  _314
REMARK  119  A    between atoms: _314  and  _315
REMARK  120  A    between atoms: _314  and  _317
REMARK  121  A    between atoms: _320  and  _322
REMARK  122  A    between atoms: _322  and  _323
REMARK  123  A    between atoms: _322  and  _325
REMARK  124  A    between atoms: _328  and  _330
REMARK  125  A    between atoms: _330  and  _331
REMARK  126  A    between atoms: _330  and  _333
REMARK  127  A    between atoms: _333  and  _334
REMARK  128  A    between atoms: _339  and  _341
REMARK  129  A    between atoms: _341  and  _342
REMARK  130  A    between atoms: _341  and  _344
REMARK  131  A    between atoms: _344  and  _345
REMARK  132  A    between atoms: _348  and  _350
REMARK  133  A    between atoms: _350  and  _351
REMARK  134  A    between atoms: _350  and  _353
REMARK  135  A    between atoms: _353  and  _354
REMARK  136  A    between atoms: _359  and  _361
REMARK  137  A    between atoms: _361  and  _362
REMARK  138  A    between atoms: _361  and  _364
REMARK  139  A    between atoms: _364  and  _365
REMARK  140  A    between atoms: _368  and  _370
REMARK  141  A    between atoms: _370  and  _371
REMARK  142  A    between atoms: _370  and  _373
REMARK  143  A    between atoms: _373  and  _374
REMARK  144  A    between atoms: _379  and  _381
REMARK  145  A    between atoms: _381  and  _382
REMARK  146  A    between atoms: _381  and  _384
REMARK  147  A    between atoms: _384  and  _385
REMARK  148  A    between atoms: _388  and  _390
REMARK  149  A    between atoms: _390  and  _391
REMARK  150  A    between atoms: _390  and  _393
REMARK  151  A    between atoms: _393  and  _394
REMARK  152  A    between atoms: _399  and  _401
REMARK  153  A    between atoms: _401  and  _402
REMARK  154  A    between atoms: _405  and  _407
REMARK  155  A    between atoms: _407  and  _408
REMARK  156  A    between atoms: _411  and  _413
REMARK  157  A    between atoms: _413  and  _414
REMARK  158  A    between atoms: _417  and  _419
REMARK  159  A    between atoms: _419  and  _420
REMARK  160  A    between atoms: _419  and  _422
REMARK  161  A    between atoms: _422  and  _423
REMARK  162  A    between atoms: _423  and  _424
REMARK  163  A    between atoms: _424  and  _425
REMARK  164  A    between atoms: _425  and  _426
REMARK  165  A    between atoms: _430  and  _432
REMARK  166  A    between atoms: _432  and  _433
REMARK  167  A    between atoms: _436  and  _438
REMARK  168  A    between atoms: _438  and  _439
REMARK  169  A    between atoms: _441  and  _443
REMARK  170  A    between atoms: _443  and  _444
REMARK  171  A    between atoms: _443  and  _446
REMARK  172  A    between atoms: _446  and  _447
REMARK  173  A    between atoms: _450  and  _452
REMARK  174  A    between atoms: _452  and  _453
REMARK  175  A    between atoms: _452  and  _455
REMARK  176  A    between atoms: _455  and  _456
REMARK  177  A    between atoms: _456  and  _457
REMARK  178  A    between atoms: _460  and  _462
REMARK  179  A    between atoms: _462  and  _463
REMARK  180  A    between atoms: _465  and  _467
REMARK  181  A    between atoms: _467  and  _468
REMARK  182  A    between atoms: _467  and  _470
REMARK  183  A    between atoms: _470  and  _471
REMARK  184  A    between atoms: _477  and  _479
REMARK  185  A    between atoms: _479  and  _480
REMARK  186  A    between atoms: _479  and  _482
REMARK  187  A    between atoms: _482  and  _483
REMARK  188  A    between atoms: _486  and  _488
REMARK  189  A    between atoms: _488  and  _489
REMARK  190  A    between atoms: _488  and  _491
REMARK  191  A    between atoms: _491  and  _492
REMARK  192  A    between atoms: _492  and  _493
REMARK  193  A    between atoms: _493  and  _494
REMARK  194  A    between atoms: _503  and  _505
REMARK  195  A    between atoms: _505  and  _506
REMARK  196  A    between atoms: _509  and  _511
REMARK  197  A    between atoms: _511  and  _512
REMARK  198  A    between atoms: _511  and  _514
REMARK  199  A    between atoms: _514  and  _515
REMARK                            x       y       z     vdW  Elec       q    Type
REMARK                         _______ _______ _______ _____ _____    ______ ____
ROOT
ATOM      1  C   GLU A   8      13.605   2.197  28.847  0.00  0.00    +0.241 C 
ATOM      2  N   GLY A   9      13.075   1.713  29.975  0.00  0.00    -0.295 N 
ATOM      3  H   GLY A   9      12.198   2.111  30.367  0.00  0.00    +0.150 HD
ATOM      4  O   GLU A   8      14.626   1.713  28.334  0.00  0.00    -0.273 OA
ENDROOT
BRANCH   1   5
ATOM      5  CA  GLU A   8      12.913   3.400  28.264  0.00  0.00    +0.149 C 
BRANCH   5   7
ATOM      6  C   LEU A   7      10.915   2.177  27.593  0.00  0.00    +0.241 C 
ATOM      7  N   GLU A   8      11.457   3.166  28.262  0.00  0.00    -0.297 N 
ATOM      8  H   GLU A   8      10.842   3.804  28.807  0.00  0.00    +0.150 HD
ATOM      9  O   LEU A   7      11.618   1.374  26.960  0.00  0.00    -0.273 OA
BRANCH   6  10
ATOM     10  CA  LEU A   7       9.400   2.061  27.591  0.00  0.00    +0.149 C 
BRANCH  10  13
ATOM     11  C   GLY A   6       9.204   1.436  29.931  0.00  0.00    +0.243 C 
ATOM     12  O   GLY A   6      10.021   0.488  29.818  0.00  0.00    -0.273 OA
ATOM     13  N   LEU A   7       8.862   2.244  28.922  0.00  0.00    -0.297 N 
ATOM     14  H   LEU A   7       8.194   3.022  29.098  0.00  0.00    +0.150 HD
BRANCH  11  15
ATOM     15  CA  GLY A   6       8.594   1.790  31.257  0.00  0.00    +0.176 C 
BRANCH  15  18
ATOM     16  C   ALA A   5       9.845   3.762  31.755  0.00  0.00    +0.241 C 
ATOM     17  O   ALA A   5      10.910   3.134  31.630  0.00  0.00    -0.273 OA
ATOM     18  N   GLY A   6       8.673   3.193  31.604  0.00  0.00    -0.295 N 
ATOM     19  H   GLY A   6       7.803   3.748  31.733  0.00  0.00    +0.150 HD
BRANCH  16  20
ATOM     20  CA  ALA A   5       9.851   5.237  32.020  0.00  0.00    +0.149 C 
ATOM     21  CB  ALA A   5       9.657   5.568  33.498  0.00  0.00    +0.031 C 
BRANCH  20  23
ATOM     22  C   LYS A   4       8.991   5.901  29.842  0.00  0.00    +0.241 C 
ATOM     23  N   ALA A   5       8.860   5.904  31.180  0.00  0.00    -0.297 N 
ATOM     24  H   ALA A   5       8.049   6.384  31.619  0.00  0.00    +0.150 HD
ATOM     25  O   LYS A   4       9.942   5.368  29.288  0.00  0.00    -0.273 OA
BRANCH  22  26
ATOM     26  CA  LYS A   4       7.879   6.601  29.040  0.00  0.00    +0.149 C 
BRANCH  26  28
ATOM     27  C   ALA A   3       6.081   5.138  29.567  0.00  0.00    +0.241 C 
ATOM     28  N   LYS A   4       6.558   6.361  29.615  0.00  0.00    -0.297 N 
ATOM     29  H   LYS A   4       6.013   7.133  30.048  0.00  0.00    +0.150 HD
ATOM     30  O   ALA A   3       6.727   4.184  29.042  0.00  0.00    -0.273 OA
BRANCH  27  31
ATOM     31  CA  ALA A   3       4.703   4.929  30.172  0.00  0.00    +0.149 C 
ATOM     32  CB  ALA A   3       3.631   5.374  29.184  0.00  0.00    +0.031 C 
BRANCH  31  35
ATOM     33  C   ALA A   2       5.344   5.367  32.448  0.00  0.00    +0.241 C 
ATOM     34  O   ALA A   2       6.160   4.419  32.427  0.00  0.00    -0.273 OA
ATOM     35  N   ALA A   3       4.580   5.680  31.401  0.00  0.00    -0.297 N 
ATOM     36  H   ALA A   3       3.898   6.462  31.468  0.00  0.00    +0.150 HD
BRANCH  33  37
ATOM     37  CA  ALA A   2       5.156   6.205  33.667  0.00  0.00    +0.149 C 
ATOM     38  CB  ALA A   2       3.929   5.704  34.463  0.00  0.00    +0.031 C 
BRANCH  37  40
ATOM     39  C   ALA A   1       6.078   8.318  32.850  0.00  0.00    +0.238 C 
ATOM     40  N   ALA A   2       5.017   7.643  33.345  0.00  0.00    -0.297 N 
ATOM     41  H   ALA A   2       4.111   8.130  33.498  0.00  0.00    +0.150 HD
ATOM     42  O   ALA A   1       7.194   7.780  32.637  0.00  0.00    -0.274 OA
BRANCH  39  43
ATOM     43  CA  ALA A   1       5.908   9.793  32.523  0.00  0.00    +0.145 C 
ATOM     44  CB  ALA A   1       6.112  10.628  33.770  0.00  0.00    +0.028 C 
BRANCH  43  45
ATOM     45  N   ALA A   1       4.632  10.077  31.965  0.00  0.00    -0.238 NA
ATOM     46  H   ALA A   1       3.943  10.642  32.501  0.00  0.00    +0.142 HD
ENDBRANCH  43  45
ENDBRANCH  39  43
ENDBRANCH  37  40
ENDBRANCH  33  37
ENDBRANCH  31  35
ENDBRANCH  27  31
ENDBRANCH  26  28
BRANCH  26  47
ATOM     47  CB  LYS A   4       8.124   8.133  29.055  0.00  0.00    +0.029 C 
BRANCH  47  48
ATOM     48  CG  LYS A   4       9.544   8.487  28.558  0.00  0.00    +0.000 C 
BRANCH  48  49
ATOM     49  CD  LYS A   4       9.665   9.859  27.852  0.00  0.00    -0.024 C 
BRANCH  49  50
ATOM     50  CE  LYS A   4       9.205  10.994  28.695  0.00  0.00    -0.086 C 
BRANCH  50  51
ATOM     51  NZ  LYS A   4       9.877  11.014  30.019  0.00  0.00    +0.380 N 
ATOM     52  HZ1 LYS A   4       9.526  11.821  30.573  0.00  0.00    -0.089 HD
ATOM     53  HZ2 LYS A   4       9.670  10.129  30.525  0.00  0.00    -0.089 HD
ATOM     54  HZ3 LYS A   4      10.904  11.105  29.884  0.00  0.00    -0.089 HD
ENDBRANCH  50  51
ENDBRANCH  49  50
ENDBRANCH  48  49
ENDBRANCH  47  48
ENDBRANCH  26  47
ENDBRANCH  22  26
ENDBRANCH  20  23
ENDBRANCH  16  20
ENDBRANCH  15  18
ENDBRANCH  11  15
ENDBRANCH  10  13
BRANCH  10  55
ATOM     55  CB  LEU A   7       8.758   3.034  26.632  0.00  0.00    +0.029 C 
BRANCH  55  56
ATOM     56  CG  LEU A   7       9.168   2.671  25.161  0.00  0.00    +0.002 C 
ATOM     57  CD2 LEU A   7       8.879   1.183  24.946  0.00  0.00    +0.000 C 
ATOM     58  CD1 LEU A   7       8.390   3.387  24.158  0.00  0.00    +0.000 C 
ENDBRANCH  55  56
ENDBRANCH  10  55
ENDBRANCH   6  10
ENDBRANCH   5   7
BRANCH   5  59
ATOM     59  CB  GLU A   8      13.299   4.700  29.032  0.00  0.00    +0.041 C 
BRANCH  59  60
ATOM     60  CG  GLU A   8      13.041   5.962  28.220  0.00  0.00    +0.116 C 
BRANCH  60  61
ATOM     61  CD  GLU A   8      13.262   7.262  28.950  0.00  0.00    +0.365 C 
ATOM     62  OE2 GLU A   8      13.461   7.187  30.117  0.00  0.00    -0.246 OA
ATOM     63  OE1 GLU A   8      13.125   8.341  28.356  0.00  0.00    -0.246 OA
ENDBRANCH  60  61
ENDBRANCH  59  60
ENDBRANCH   5  59
ENDBRANCH   1   5
BRANCH   2  64
ATOM     64  CA  GLY A   9      13.768   0.601  30.646  0.00  0.00    +0.176 C 
BRANCH  64  65
ATOM     65  C   GLY A   9      13.609  -0.703  29.903  0.00  0.00    +0.243 C 
ATOM     66  O   GLY A   9      14.565  -1.520  29.849  0.00  0.00    -0.273 OA
ATOM     67  N   PHE A  10      12.404  -0.985  29.399  0.00  0.00    -0.297 N 
ATOM     68  H   PHE A  10      11.616  -0.340  29.610  0.00  0.00    +0.150 HD
BRANCH  67  69
ATOM     69  CA  PHE A  10      12.143  -2.151  28.570  0.00  0.00    +0.153 C 
BRANCH  69  70
ATOM     70  C   PHE A  10      13.117  -2.192  27.371  0.00  0.00    +0.241 C 
ATOM     71  O   PHE A  10      13.743  -3.225  27.072  0.00  0.00    -0.273 OA
ATOM     72  N   THR A  11      13.242  -1.043  26.691  0.00  0.00    -0.295 N 
ATOM     73  H   THR A  11      12.705  -0.213  27.013  0.00  0.00    +0.150 HD
BRANCH  72  74
ATOM     74  CA  THR A  11      14.099  -0.909  25.520  0.00  0.00    +0.176 C 
BRANCH  74  75
ATOM     75  C   THR A  11      15.528  -1.182  25.820  0.00  0.00    +0.243 C 
ATOM     76  N   ARG A  12      16.029  -0.630  26.918  0.00  0.00    -0.297 N 
ATOM     77  H   ARG A  12      15.410  -0.047  27.516  0.00  0.00    +0.150 HD
ATOM     78  O   THR A  11      16.245  -1.926  25.056  0.00  0.00    -0.273 OA
BRANCH  76  79
ATOM     79  CA  ARG A  12      17.397  -0.813  27.305  0.00  0.00    +0.149 C 
BRANCH  79  80
ATOM     80  C   ARG A  12      17.702  -2.288  27.624  0.00  0.00    +0.241 C 
ATOM     81  N   ALA A  13      16.765  -2.938  28.284  0.00  0.00    -0.297 N 
ATOM     82  H   ALA A  13      15.884  -2.452  28.548  0.00  0.00    +0.150 HD
ATOM     83  O   ARG A  12      18.707  -2.863  27.209  0.00  0.00    -0.273 OA
BRANCH  81  84
ATOM     84  CA  ALA A  13      16.956  -4.305  28.636  0.00  0.00    +0.149 C 
ATOM     85  CB  ALA A  13      15.924  -4.700  29.747  0.00  0.00    +0.031 C 
BRANCH  84  86
ATOM     86  C   ALA A  13      16.902  -5.289  27.423  0.00  0.00    +0.241 C 
ATOM     87  O   ALA A  13      17.746  -6.147  27.301  0.00  0.00    -0.273 OA
ATOM     88  N   LEU A  14      15.928  -5.116  26.563  0.00  0.00    -0.298 N 
ATOM     89  H   LEU A  14      15.225  -4.365  26.713  0.00  0.00    +0.150 HD
BRANCH  88  90
ATOM     90  CA  LEU A  14      15.837  -5.986  25.393  0.00  0.00    +0.137 C 
BRANCH  90  91
ATOM     91  C   LEU A  14      17.061  -5.769  24.525  0.00  0.00    +0.227 C 
ATOM     92  O   LEU A  14      17.617  -6.733  23.980  0.00  0.00    -0.286 OA
ENDBRANCH  90  91
BRANCH  90  93
ATOM     93  CB  LEU A  14      14.501  -5.726  24.666  0.00  0.00    +0.028 C 
BRANCH  93  94
ATOM     94  CG  LEU A  14      14.262  -6.700  23.534  0.00  0.00    +0.002 C 
ATOM     95  CD2 LEU A  14      14.147  -8.124  24.011  0.00  0.00    +0.000 C 
ATOM     96  CD1 LEU A  14      13.012  -6.253  22.786  0.00  0.00    +0.000 C 
ENDBRANCH  93  94
ENDBRANCH  90  93
ENDBRANCH  88  90
ENDBRANCH  84  86
ENDBRANCH  81  84
ENDBRANCH  79  80
BRANCH  79  97
ATOM     97  CB  ARG A  12      17.766   0.057  28.457  0.00  0.00    +0.033 C 
BRANCH  97  98
ATOM     98  CG  ARG A  12      19.286  -0.079  28.652  0.00  0.00    +0.045 C 
BRANCH  98  99
ATOM     99  CD  ARG A  12      19.788   1.178  29.225  0.00  0.00    +0.174 C 
BRANCH  99 100
ATOM    100  NE  ARG A  12      19.568   2.274  28.291  0.00  0.00    -0.265 N 
ATOM    101  CZ  ARG A  12      19.709   3.529  28.649  0.00  0.00    +0.342 C 
ATOM    102  NH2 ARG A  12      20.117   3.819  29.889  0.00  0.00    -0.292 N 
ATOM    103 HH21 ARG A  12      20.320   3.053  30.562  0.00  0.00    +0.255 HD
ATOM    104 HH22 ARG A  12      20.231   4.811  30.180  0.00  0.00    +0.255 HD
ATOM    105  NH1 ARG A  12      19.474   4.486  27.767  0.00  0.00    -0.292 N 
ATOM    106 HH11 ARG A  12      19.583   5.483  28.041  0.00  0.00    +0.255 HD
ATOM    107 HH12 ARG A  12      19.180   4.241  26.800  0.00  0.00    +0.255 HD
ATOM    108  HE  ARG A  12      19.291   2.056  27.312  0.00  0.00    +0.259 HD
ENDBRANCH  99 100
ENDBRANCH  98  99
ENDBRANCH  97  98
ENDBRANCH  79  97
ENDBRANCH  76  79
ENDBRANCH  74  75
BRANCH  74 109
ATOM    109  CB  THR A  11      13.843   0.517  24.890  0.00  0.00    +0.137 C 
ATOM    110  CG2 THR A  11      14.745   0.759  23.684  0.00  0.00    +0.034 C 
BRANCH 109 111
ATOM    111  OG1 THR A  11      12.471   0.575  24.494  0.00  0.00    -0.382 OA
ATOM    112  HG1 THR A  11      11.894   0.439  25.287  0.00  0.00    +0.210 HD
ENDBRANCH 109 111
ENDBRANCH  74 109
ENDBRANCH  72  74
ENDBRANCH  69  70
BRANCH  69 113
ATOM    113  CB  PHE A  10      10.658  -2.178  28.099  0.00  0.00    +0.055 C 
BRANCH 113 114
ATOM    114  CG  PHE A  10      10.375  -3.310  27.204  0.00  0.00    -0.020 A 
ATOM    115  CD2 PHE A  10       9.825  -4.477  27.741  0.00  0.00    -0.004 A 
ATOM    116  CE2 PHE A  10       9.562  -5.568  26.942  0.00  0.00    -0.000 A 
ATOM    117  CZ  PHE A  10       9.848  -5.520  25.596  0.00  0.00    -0.000 A 
ATOM    118  CE1 PHE A  10      10.353  -4.333  25.041  0.00  0.00    -0.000 A 
ATOM    119  CD1 PHE A  10      10.602  -3.241  25.871  0.00  0.00    -0.004 A 
ENDBRANCH 113 114
ENDBRANCH  69 113
ENDBRANCH  67  69
ENDBRANCH  64  65
ENDBRANCH   2  64
TORSDOF 48
REMARK  Name = ../refined-set-2016/4bny/4bny_pocket.pdb
REMARK  199 active torsions:
REMARK  status: ('A' for Active; 'I' for Inactive)
REMARK    1  A    between atoms: _1  and  _3
REMARK    2  A    between atoms: _3  and  _4
REMARK    3  A    between atoms: _3  and  _6
REMARK    4  A    between atoms: _6  and  _7
REMARK    5  A    between atoms: _17  and  _19
REMARK    6  A    between atoms: _19  and  _20
REMARK    7  A    between atoms: _19  and  _22
REMARK    8  A    between atoms: _22  and  _23
REMARK    9  A    between atoms: _29  and  _31
REMARK   10  A    between atoms: _31  and  _32
REMARK   11  A    between atoms: _31  and  _34
REMARK   12  A    between atoms: _34  and  _35
REMARK   13  A    between atoms: _38  and  _40
REMARK   14  A    between atoms: _40  and  _41
REMARK   15  A    between atoms: _40  and  _43
REMARK   16  A    between atoms: _46  and  _48
REMARK   17  A    between atoms: _48  and  _49
REMARK   18  A    between atoms: _48  and  _51
REMARK   19  A    between atoms: _54  and  _56
REMARK   20  A    between atoms: _56  and  _57
REMARK   21  A    between atoms: _56  and  _59
REMARK   22  A    between atoms: _59  and  _60
REMARK   23  A    between atoms: _65  and  _67
REMARK   24  A    between atoms: _67  and  _68
REMARK   25  A    between atoms: _67  and  _70
REMARK   26  A    between atoms: _70  and  _71
REMARK   27  A    between atoms: _74  and  _76
REMARK   28  A    between atoms: _76  and  _77
REMARK   29  A    between atoms: _76  and  _79
REMARK   30  A    between atoms: _79  and  _80
REMARK   31  A    between atoms: _85  and  _87
REMARK   32  A    between atoms: _87  and  _88
REMARK   33  A    between atoms: _87  and  _90
REMARK   34  A    between atoms: _90  and  _91
REMARK   35  A    between atoms: _94  and  _96
REMARK   36  A    between atoms: _96  and  _97
REMARK   37  A    between atoms: _96  and  _99
REMARK   38  A    between atoms: _99  and  _100
REMARK   39  A    between atoms: _105  and  _107
REMARK   40  A    between atoms: _107  and  _108
REMARK   41  A    between atoms: _107  and  _110
REMARK   42  A    between atoms: _110  and  _111
REMARK   43  A    between atoms: _116  and  _117
REMARK   44  A    between atoms: _119  and  _121
REMARK   45  A    between atoms: _121  and  _122
REMARK   46  A    between atoms: _121  and  _124
REMARK   47  A    between atoms: _124  and  _125
REMARK   48  A    between atoms: _128  and  _130
REMARK   49  A    between atoms: _130  and  _131
REMARK   50  A    between atoms: _130  and  _133
REMARK   51  A    between atoms: _133  and  _134
REMARK   52  A    between atoms: _139  and  _141
REMARK   53  A    between atoms: _141  and  _142
REMARK   54  A    between atoms: _145  and  _147
REMARK   55  A    between atoms: _147  and  _148
REMARK   56  A    between atoms: _151  and  _153
REMARK   57  A    between atoms: _153  and  _154
REMARK   58  A    between atoms: _157  and  _159
REMARK   59  A    between atoms: _159  and  _160
REMARK   60  A    between atoms: _159  and  _162
REMARK   61  A    between atoms: _162  and  _163
REMARK   62  A    between atoms: _163  and  _164
REMARK   63  A    between atoms: _164  and  _165
REMARK   64  A    between atoms: _165  and  _166
REMARK   65  A    between atoms: _170  and  _172
REMARK   66  A    between atoms: _172  and  _173
REMARK   67  A    between atoms: _176  and  _178
REMARK   68  A    between atoms: _178  and  _179
REMARK   69  A    between atoms: _181  and  _183
REMARK   70  A    between atoms: _183  and  _184
REMARK   71  A    between atoms: _183  and  _186
REMARK   72  A    between atoms: _186  and  _187
REMARK   73  A    between atoms: _190  and  _192
REMARK   74  A    between atoms: _192  and  _193
REMARK   75  A    between atoms: _192  and  _195
REMARK   76  A    between atoms: _195  and  _196
REMARK   77  A    between atoms: _196  and  _197
REMARK   78  A    between atoms: _200  and  _202
REMARK   79  A    between atoms: _202  and  _203
REMARK   80  A    between atoms: _205  and  _207
REMARK   81  A    between atoms: _207  and  _208
REMARK   82  A    between atoms: _207  and  _210
REMARK   83  A    between atoms: _210  and  _211
REMARK   84  A    between atoms: _217  and  _219
REMARK   85  A    between atoms: _219  and  _220
REMARK   86  A    between atoms: _219  and  _222
REMARK   87  A    between atoms: _222  and  _223
REMARK   88  A    between atoms: _226  and  _228
REMARK   89  A    between atoms: _228  and  _229
REMARK   90  A    between atoms: _228  and  _231
REMARK   91  A    between atoms: _231  and  _232
REMARK   92  A    between atoms: _232  and  _233
REMARK   93  A    between atoms: _233  and  _234
REMARK   94  A    between atoms: _243  and  _245
REMARK   95  A    between atoms: _245  and  _246
REMARK   96  A    between atoms: _249  and  _251
REMARK   97  A    between atoms: _251  and  _252
REMARK   98  A    between atoms: _251  and  _254
REMARK   99  A    between atoms: _254  and  _255
REMARK  100  A    between atoms: _258  and  _260
REMARK  101  A    between atoms: _260  and  _261
REMARK  102  A    between atoms: _260  and  _263
REMARK  103  A    between atoms: _263  and  _264
REMARK  104  A    between atoms: _264  and  _265
REMARK  105  A    between atoms: _265  and  _266
REMARK  106  A    between atoms: _275  and  _277
REMARK  107  A    between atoms: _277  and  _278
REMARK  108  A    between atoms: _277  and  _280
REMARK  109  A    between atoms: _280  and  _281
REMARK  110  A    between atoms: _291  and  _293
REMARK  111  A    between atoms: _293  and  _294
REMARK  112  A    between atoms: _293  and  _296
REMARK  113  A    between atoms: _296  and  _297
REMARK  114  A    between atoms: _303  and  _305
REMARK  115  A    between atoms: _305  and  _306
REMARK  116  A    between atoms: _305  and  _308
REMARK  117  A    between atoms: _308  and  _309
REMARK  118  A    between atoms: _312  and  _314
REMARK  119  A    between atoms: _314  and  _315
REMARK  120  A    between atoms: _314  and  _317
REMARK  121  A    between atoms: _320  and  _322
REMARK  122  A    between atoms: _322  and  _323
REMARK  123  A    between atoms: _322  and  _325
REMARK  124  A    between atoms: _328  and  _330
REMARK  125  A    between atoms: _330  and  _331
REMARK  126  A    between atoms: _330  and  _333
REMARK  127  A    between atoms: _333  and  _334
REMARK  128  A    between atoms: _339  and  _341
REMARK  129  A    between atoms: _341  and  _342
REMARK  130  A    between atoms: _341  and  _344
REMARK  131  A    between atoms: _344  and  _345
REMARK  132  A    between atoms: _348  and  _350
REMARK  133  A    between atoms: _350  and  _351
REMARK  134  A    between atoms: _350  and  _353
REMARK  135  A    between atoms: _353  and  _354
REMARK  136  A    between atoms: _359  and  _361
REMARK  137  A    between atoms: _361  and  _362
REMARK  138  A    between atoms: _361  and  _364
REMARK  139  A    between atoms: _364  and  _365
REMARK  140  A    between atoms: _368  and  _370
REMARK  141  A    between atoms: _370  and  _371
REMARK  142  A    between atoms: _370  and  _373
REMARK  143  A    between atoms: _373  and  _374
REMARK  144  A    between atoms: _379  and  _381
REMARK  145  A    between atoms: _381  and  _382
REMARK  146  A    between atoms: _381  and  _384
REMARK  147  A    between atoms: _384  and  _385
REMARK  148  A    between atoms: _388  and  _390
REMARK  149  A    between atoms: _390  and  _391
REMARK  150  A    between atoms: _390  and  _393
REMARK  151  A    between atoms: _393  and  _394
REMARK  152  A    between atoms: _399  and  _401
REMARK  153  A    between atoms: _401  and  _402
REMARK  154  A    between atoms: _405  and  _407
REMARK  155  A    between atoms: _407  and  _408
REMARK  156  A    between atoms: _411  and  _413
REMARK  157  A    between atoms: _413  and  _414
REMARK  158  A    between atoms: _417  and  _419
REMARK  159  A    between atoms: _419  and  _420
REMARK  160  A    between atoms: _419  and  _422
REMARK  161  A    between atoms: _422  and  _423
REMARK  162  A    between atoms: _423  and  _424
REMARK  163  A    between atoms: _424  and  _425
REMARK  164  A    between atoms: _425  and  _426
REMARK  165  A    between atoms: _430  and  _432
REMARK  166  A    between atoms: _432  and  _433
REMARK  167  A    between atoms: _436  and  _438
REMARK  168  A    between atoms: _438  and  _439
REMARK  169  A    between atoms: _441  and  _443
REMARK  170  A    between atoms: _443  and  _444
REMARK  171  A    between atoms: _443  and  _446
REMARK  172  A    between atoms: _446  and  _447
REMARK  173  A    between atoms: _450  and  _452
REMARK  174  A    between atoms: _452  and  _453
REMARK  175  A    between atoms: _452  and  _455
REMARK  176  A    between atoms: _455  and  _456
REMARK  177  A    between atoms: _456  and  _457
REMARK  178  A    between atoms: _460  and  _462
REMARK  179  A    between atoms: _462  and  _463
REMARK  180  A    between atoms: _465  and  _467
REMARK  181  A    between atoms: _467  and  _468
REMARK  182  A    between atoms: _467  and  _470
REMARK  183  A    between atoms: _470  and  _471
REMARK  184  A    between atoms: _477  and  _479
REMARK  185  A    between atoms: _479  and  _480
REMARK  186  A    between atoms: _479  and  _482
REMARK  187  A    between atoms: _482  and  _483
REMARK  188  A    between atoms: _486  and  _488
REMARK  189  A    between atoms: _488  and  _489
REMARK  190  A    between atoms: _488  and  _491
REMARK  191  A    between atoms: _491  and  _492
REMARK  192  A    between atoms: _492  and  _493
REMARK  193  A    between atoms: _493  and  _494
REMARK  194  A    between atoms: _503  and  _505
REMARK  195  A    between atoms: _505  and  _506
REMARK  196  A    between atoms: _509  and  _511
REMARK  197  A    between atoms: _511  and  _512
REMARK  198  A    between atoms: _511  and  _514
REMARK  199  A    between atoms: _514  and  _515
REMARK                            x       y       z     vdW  Elec       q    Type
REMARK                         _______ _______ _______ _____ _____    ______ ____
ROOT
ATOM      1  O   HOH     1      17.340   0.998  32.398  0.00  0.00    +0.000 OA
ENDROOT
TORSDOF 0
REMARK  Name = ../refined-set-2016/4bny/4bny_pocket.pdb
REMARK  199 active torsions:
REMARK  status: ('A' for Active; 'I' for Inactive)
REMARK    1  A    between atoms: _1  and  _3
REMARK    2  A    between atoms: _3  and  _4
REMARK    3  A    between atoms: _3  and  _6
REMARK    4  A    between atoms: _6  and  _7
REMARK    5  A    between atoms: _17  and  _19
REMARK    6  A    between atoms: _19  and  _20
REMARK    7  A    between atoms: _19  and  _22
REMARK    8  A    between atoms: _22  and  _23
REMARK    9  A    between atoms: _29  and  _31
REMARK   10  A    between atoms: _31  and  _32
REMARK   11  A    between atoms: _31  and  _34
REMARK   12  A    between atoms: _34  and  _35
REMARK   13  A    between atoms: _38  and  _40
REMARK   14  A    between atoms: _40  and  _41
REMARK   15  A    between atoms: _40  and  _43
REMARK   16  A    between atoms: _46  and  _48
REMARK   17  A    between atoms: _48  and  _49
REMARK   18  A    between atoms: _48  and  _51
REMARK   19  A    between atoms: _54  and  _56
REMARK   20  A    between atoms: _56  and  _57
REMARK   21  A    between atoms: _56  and  _59
REMARK   22  A    between atoms: _59  and  _60
REMARK   23  A    between atoms: _65  and  _67
REMARK   24  A    between atoms: _67  and  _68
REMARK   25  A    between atoms: _67  and  _70
REMARK   26  A    between atoms: _70  and  _71
REMARK   27  A    between atoms: _74  and  _76
REMARK   28  A    between atoms: _76  and  _77
REMARK   29  A    between atoms: _76  and  _79
REMARK   30  A    between atoms: _79  and  _80
REMARK   31  A    between atoms: _85  and  _87
REMARK   32  A    between atoms: _87  and  _88
REMARK   33  A    between atoms: _87  and  _90
REMARK   34  A    between atoms: _90  and  _91
REMARK   35  A    between atoms: _94  and  _96
REMARK   36  A    between atoms: _96  and  _97
REMARK   37  A    between atoms: _96  and  _99
REMARK   38  A    between atoms: _99  and  _100
REMARK   39  A    between atoms: _105  and  _107
REMARK   40  A    between atoms: _107  and  _108
REMARK   41  A    between atoms: _107  and  _110
REMARK   42  A    between atoms: _110  and  _111
REMARK   43  A    between atoms: _116  and  _117
REMARK   44  A    between atoms: _119  and  _121
REMARK   45  A    between atoms: _121  and  _122
REMARK   46  A    between atoms: _121  and  _124
REMARK   47  A    between atoms: _124  and  _125
REMARK   48  A    between atoms: _128  and  _130
REMARK   49  A    between atoms: _130  and  _131
REMARK   50  A    between atoms: _130  and  _133
REMARK   51  A    between atoms: _133  and  _134
REMARK   52  A    between atoms: _139  and  _141
REMARK   53  A    between atoms: _141  and  _142
REMARK   54  A    between atoms: _145  and  _147
REMARK   55  A    between atoms: _147  and  _148
REMARK   56  A    between atoms: _151  and  _153
REMARK   57  A    between atoms: _153  and  _154
REMARK   58  A    between atoms: _157  and  _159
REMARK   59  A    between atoms: _159  and  _160
REMARK   60  A    between atoms: _159  and  _162
REMARK   61  A    between atoms: _162  and  _163
REMARK   62  A    between atoms: _163  and  _164
REMARK   63  A    between atoms: _164  and  _165
REMARK   64  A    between atoms: _165  and  _166
REMARK   65  A    between atoms: _170  and  _172
REMARK   66  A    between atoms: _172  and  _173
REMARK   67  A    between atoms: _176  and  _178
REMARK   68  A    between atoms: _178  and  _179
REMARK   69  A    between atoms: _181  and  _183
REMARK   70  A    between atoms: _183  and  _184
REMARK   71  A    between atoms: _183  and  _186
REMARK   72  A    between atoms: _186  and  _187
REMARK   73  A    between atoms: _190  and  _192
REMARK   74  A    between atoms: _192  and  _193
REMARK   75  A    between atoms: _192  and  _195
REMARK   76  A    between atoms: _195  and  _196
REMARK   77  A    between atoms: _196  and  _197
REMARK   78  A    between atoms: _200  and  _202
REMARK   79  A    between atoms: _202  and  _203
REMARK   80  A    between atoms: _205  and  _207
REMARK   81  A    between atoms: _207  and  _208
REMARK   82  A    between atoms: _207  and  _210
REMARK   83  A    between atoms: _210  and  _211
REMARK   84  A    between atoms: _217  and  _219
REMARK   85  A    between atoms: _219  and  _220
REMARK   86  A    between atoms: _219  and  _222
REMARK   87  A    between atoms: _222  and  _223
REMARK   88  A    between atoms: _226  and  _228
REMARK   89  A    between atoms: _228  and  _229
REMARK   90  A    between atoms: _228  and  _231
REMARK   91  A    between atoms: _231  and  _232
REMARK   92  A    between atoms: _232  and  _233
REMARK   93  A    between atoms: _233  and  _234
REMARK   94  A    between atoms: _243  and  _245
REMARK   95  A    between atoms: _245  and  _246
REMARK   96  A    between atoms: _249  and  _251
REMARK   97  A    between atoms: _251  and  _252
REMARK   98  A    between atoms: _251  and  _254
REMARK   99  A    between atoms: _254  and  _255
REMARK  100  A    between atoms: _258  and  _260
REMARK  101  A    between atoms: _260  and  _261
REMARK  102  A    between atoms: _260  and  _263
REMARK  103  A    between atoms: _263  and  _264
REMARK  104  A    between atoms: _264  and  _265
REMARK  105  A    between atoms: _265  and  _266
REMARK  106  A    between atoms: _275  and  _277
REMARK  107  A    between atoms: _277  and  _278
REMARK  108  A    between atoms: _277  and  _280
REMARK  109  A    between atoms: _280  and  _281
REMARK  110  A    between atoms: _291  and  _293
REMARK  111  A    between atoms: _293  and  _294
REMARK  112  A    between atoms: _293  and  _296
REMARK  113  A    between atoms: _296  and  _297
REMARK  114  A    between atoms: _303  and  _305
REMARK  115  A    between atoms: _305  and  _306
REMARK  116  A    between atoms: _305  and  _308
REMARK  117  A    between atoms: _308  and  _309
REMARK  118  A    between atoms: _312  and  _314
REMARK  119  A    between atoms: _314  and  _315
REMARK  120  A    between atoms: _314  and  _317
REMARK  121  A    between atoms: _320  and  _322
REMARK  122  A    between atoms: _322  and  _323
REMARK  123  A    between atoms: _322  and  _325
REMARK  124  A    between atoms: _328  and  _330
REMARK  125  A    between atoms: _330  and  _331
REMARK  126  A    between atoms: _330  and  _333
REMARK  127  A    between atoms: _333  and  _334
REMARK  128  A    between atoms: _339  and  _341
REMARK  129  A    between atoms: _341  and  _342
REMARK  130  A    between atoms: _341  and  _344
REMARK  131  A    between atoms: _344  and  _345
REMARK  132  A    between atoms: _348  and  _350
REMARK  133  A    between atoms: _350  and  _351
REMARK  134  A    between atoms: _350  and  _353
REMARK  135  A    between atoms: _353  and  _354
REMARK  136  A    between atoms: _359  and  _361
REMARK  137  A    between atoms: _361  and  _362
REMARK  138  A    between atoms: _361  and  _364
REMARK  139  A    between atoms: _364  and  _365
REMARK  140  A    between atoms: _368  and  _370
REMARK  141  A    between atoms: _370  and  _371
REMARK  142  A    between atoms: _370  and  _373
REMARK  143  A    between atoms: _373  and  _374
REMARK  144  A    between atoms: _379  and  _381
REMARK  145  A    between atoms: _381  and  _382
REMARK  146  A    between atoms: _381  and  _384
REMARK  147  A    between atoms: _384  and  _385
REMARK  148  A    between atoms: _388  and  _390
REMARK  149  A    between atoms: _390  and  _391
REMARK  150  A    between atoms: _390  and  _393
REMARK  151  A    between atoms: _393  and  _394
REMARK  152  A    between atoms: _399  and  _401
REMARK  153  A    between atoms: _401  and  _402
REMARK  154  A    between atoms: _405  and  _407
REMARK  155  A    between atoms: _407  and  _408
REMARK  156  A    between atoms: _411  and  _413
REMARK  157  A    between atoms: _413  and  _414
REMARK  158  A    between atoms: _417  and  _419
REMARK  159  A    between atoms: _419  and  _420
REMARK  160  A    between atoms: _419  and  _422
REMARK  161  A    between atoms: _422  and  _423
REMARK  162  A    between atoms: _423  and  _424
REMARK  163  A    between atoms: _424  and  _425
REMARK  164  A    between atoms: _425  and  _426
REMARK  165  A    between atoms: _430  and  _432
REMARK  166  A    between atoms: _432  and  _433
REMARK  167  A    between atoms: _436  and  _438
REMARK  168  A    between atoms: _438  and  _439
REMARK  169  A    between atoms: _441  and  _443
REMARK  170  A    between atoms: _443  and  _444
REMARK  171  A    between atoms: _443  and  _446
REMARK  172  A    between atoms: _446  and  _447
REMARK  173  A    between atoms: _450  and  _452
REMARK  174  A    between atoms: _452  and  _453
REMARK  175  A    between atoms: _452  and  _455
REMARK  176  A    between atoms: _455  and  _456
REMARK  177  A    between atoms: _456  and  _457
REMARK  178  A    between atoms: _460  and  _462
REMARK  179  A    between atoms: _462  and  _463
REMARK  180  A    between atoms: _465  and  _467
REMARK  181  A    between atoms: _467  and  _468
REMARK  182  A    between atoms: _467  and  _470
REMARK  183  A    between atoms: _470  and  _471
REMARK  184  A    between atoms: _477  and  _479
REMARK  185  A    between atoms: _479  and  _480
REMARK  186  A    between atoms: _479  and  _482
REMARK  187  A    between atoms: _482  and  _483
REMARK  188  A    between atoms: _486  and  _488
REMARK  189  A    between atoms: _488  and  _489
REMARK  190  A    between atoms: _488  and  _491
REMARK  191  A    between atoms: _491  and  _492
REMARK  192  A    between atoms: _492  and  _493
REMARK  193  A    between atoms: _493  and  _494
REMARK  194  A    between atoms: _503  and  _505
REMARK  195  A    between atoms: _505  and  _506
REMARK  196  A    between atoms: _509  and  _511
REMARK  197  A    between atoms: _511  and  _512
REMARK  198  A    between atoms: _511  and  _514
REMARK  199  A    between atoms: _514  and  _515
REMARK                            x       y       z     vdW  Elec       q    Type
REMARK                         _______ _______ _______ _____ _____    ______ ____
ROOT
ATOM      1  O   HOH     1       1.271  -8.811  33.753  0.00  0.00    +0.000 OA
ENDROOT
TORSDOF 0
REMARK  Name = ../refined-set-2016/4bny/4bny_pocket.pdb
REMARK  199 active torsions:
REMARK  status: ('A' for Active; 'I' for Inactive)
REMARK    1  A    between atoms: _1  and  _3
REMARK    2  A    between atoms: _3  and  _4
REMARK    3  A    between atoms: _3  and  _6
REMARK    4  A    between atoms: _6  and  _7
REMARK    5  A    between atoms: _17  and  _19
REMARK    6  A    between atoms: _19  and  _20
REMARK    7  A    between atoms: _19  and  _22
REMARK    8  A    between atoms: _22  and  _23
REMARK    9  A    between atoms: _29  and  _31
REMARK   10  A    between atoms: _31  and  _32
REMARK   11  A    between atoms: _31  and  _34
REMARK   12  A    between atoms: _34  and  _35
REMARK   13  A    between atoms: _38  and  _40
REMARK   14  A    between atoms: _40  and  _41
REMARK   15  A    between atoms: _40  and  _43
REMARK   16  A    between atoms: _46  and  _48
REMARK   17  A    between atoms: _48  and  _49
REMARK   18  A    between atoms: _48  and  _51
REMARK   19  A    between atoms: _54  and  _56
REMARK   20  A    between atoms: _56  and  _57
REMARK   21  A    between atoms: _56  and  _59
REMARK   22  A    between atoms: _59  and  _60
REMARK   23  A    between atoms: _65  and  _67
REMARK   24  A    between atoms: _67  and  _68
REMARK   25  A    between atoms: _67  and  _70
REMARK   26  A    between atoms: _70  and  _71
REMARK   27  A    between atoms: _74  and  _76
REMARK   28  A    between atoms: _76  and  _77
REMARK   29  A    between atoms: _76  and  _79
REMARK   30  A    between atoms: _79  and  _80
REMARK   31  A    between atoms: _85  and  _87
REMARK   32  A    between atoms: _87  and  _88
REMARK   33  A    between atoms: _87  and  _90
REMARK   34  A    between atoms: _90  and  _91
REMARK   35  A    between atoms: _94  and  _96
REMARK   36  A    between atoms: _96  and  _97
REMARK   37  A    between atoms: _96  and  _99
REMARK   38  A    between atoms: _99  and  _100
REMARK   39  A    between atoms: _105  and  _107
REMARK   40  A    between atoms: _107  and  _108
REMARK   41  A    between atoms: _107  and  _110
REMARK   42  A    between atoms: _110  and  _111
REMARK   43  A    between atoms: _116  and  _117
REMARK   44  A    between atoms: _119  and  _121
REMARK   45  A    between atoms: _121  and  _122
REMARK   46  A    between atoms: _121  and  _124
REMARK   47  A    between atoms: _124  and  _125
REMARK   48  A    between atoms: _128  and  _130
REMARK   49  A    between atoms: _130  and  _131
REMARK   50  A    between atoms: _130  and  _133
REMARK   51  A    between atoms: _133  and  _134
REMARK   52  A    between atoms: _139  and  _141
REMARK   53  A    between atoms: _141  and  _142
REMARK   54  A    between atoms: _145  and  _147
REMARK   55  A    between atoms: _147  and  _148
REMARK   56  A    between atoms: _151  and  _153
REMARK   57  A    between atoms: _153  and  _154
REMARK   58  A    between atoms: _157  and  _159
REMARK   59  A    between atoms: _159  and  _160
REMARK   60  A    between atoms: _159  and  _162
REMARK   61  A    between atoms: _162  and  _163
REMARK   62  A    between atoms: _163  and  _164
REMARK   63  A    between atoms: _164  and  _165
REMARK   64  A    between atoms: _165  and  _166
REMARK   65  A    between atoms: _170  and  _172
REMARK   66  A    between atoms: _172  and  _173
REMARK   67  A    between atoms: _176  and  _178
REMARK   68  A    between atoms: _178  and  _179
REMARK   69  A    between atoms: _181  and  _183
REMARK   70  A    between atoms: _183  and  _184
REMARK   71  A    between atoms: _183  and  _186
REMARK   72  A    between atoms: _186  and  _187
REMARK   73  A    between atoms: _190  and  _192
REMARK   74  A    between atoms: _192  and  _193
REMARK   75  A    between atoms: _192  and  _195
REMARK   76  A    between atoms: _195  and  _196
REMARK   77  A    between atoms: _196  and  _197
REMARK   78  A    between atoms: _200  and  _202
REMARK   79  A    between atoms: _202  and  _203
REMARK   80  A    between atoms: _205  and  _207
REMARK   81  A    between atoms: _207  and  _208
REMARK   82  A    between atoms: _207  and  _210
REMARK   83  A    between atoms: _210  and  _211
REMARK   84  A    between atoms: _217  and  _219
REMARK   85  A    between atoms: _219  and  _220
REMARK   86  A    between atoms: _219  and  _222
REMARK   87  A    between atoms: _222  and  _223
REMARK   88  A    between atoms: _226  and  _228
REMARK   89  A    between atoms: _228  and  _229
REMARK   90  A    between atoms: _228  and  _231
REMARK   91  A    between atoms: _231  and  _232
REMARK   92  A    between atoms: _232  and  _233
REMARK   93  A    between atoms: _233  and  _234
REMARK   94  A    between atoms: _243  and  _245
REMARK   95  A    between atoms: _245  and  _246
REMARK   96  A    between atoms: _249  and  _251
REMARK   97  A    between atoms: _251  and  _252
REMARK   98  A    between atoms: _251  and  _254
REMARK   99  A    between atoms: _254  and  _255
REMARK  100  A    between atoms: _258  and  _260
REMARK  101  A    between atoms: _260  and  _261
REMARK  102  A    between atoms: _260  and  _263
REMARK  103  A    between atoms: _263  and  _264
REMARK  104  A    between atoms: _264  and  _265
REMARK  105  A    between atoms: _265  and  _266
REMARK  106  A    between atoms: _275  and  _277
REMARK  107  A    between atoms: _277  and  _278
REMARK  108  A    between atoms: _277  and  _280
REMARK  109  A    between atoms: _280  and  _281
REMARK  110  A    between atoms: _291  and  _293
REMARK  111  A    between atoms: _293  and  _294
REMARK  112  A    between atoms: _293  and  _296
REMARK  113  A    between atoms: _296  and  _297
REMARK  114  A    between atoms: _303  and  _305
REMARK  115  A    between atoms: _305  and  _306
REMARK  116  A    between atoms: _305  and  _308
REMARK  117  A    between atoms: _308  and  _309
REMARK  118  A    between atoms: _312  and  _314
REMARK  119  A    between atoms: _314  and  _315
REMARK  120  A    between atoms: _314  and  _317
REMARK  121  A    between atoms: _320  and  _322
REMARK  122  A    between atoms: _322  and  _323
REMARK  123  A    between atoms: _322  and  _325
REMARK  124  A    between atoms: _328  and  _330
REMARK  125  A    between atoms: _330  and  _331
REMARK  126  A    between atoms: _330  and  _333
REMARK  127  A    between atoms: _333  and  _334
REMARK  128  A    between atoms: _339  and  _341
REMARK  129  A    between atoms: _341  and  _342
REMARK  130  A    between atoms: _341  and  _344
REMARK  131  A    between atoms: _344  and  _345
REMARK  132  A    between atoms: _348  and  _350
REMARK  133  A    between atoms: _350  and  _351
REMARK  134  A    between atoms: _350  and  _353
REMARK  135  A    between atoms: _353  and  _354
REMARK  136  A    between atoms: _359  and  _361
REMARK  137  A    between atoms: _361  and  _362
REMARK  138  A    between atoms: _361  and  _364
REMARK  139  A    between atoms: _364  and  _365
REMARK  140  A    between atoms: _368  and  _370
REMARK  141  A    between atoms: _370  and  _371
REMARK  142  A    between atoms: _370  and  _373
REMARK  143  A    between atoms: _373  and  _374
REMARK  144  A    between atoms: _379  and  _381
REMARK  145  A    between atoms: _381  and  _382
REMARK  146  A    between atoms: _381  and  _384
REMARK  147  A    between atoms: _384  and  _385
REMARK  148  A    between atoms: _388  and  _390
REMARK  149  A    between atoms: _390  and  _391
REMARK  150  A    between atoms: _390  and  _393
REMARK  151  A    between atoms: _393  and  _394
REMARK  152  A    between atoms: _399  and  _401
REMARK  153  A    between atoms: _401  and  _402
REMARK  154  A    between atoms: _405  and  _407
REMARK  155  A    between atoms: _407  and  _408
REMARK  156  A    between atoms: _411  and  _413
REMARK  157  A    between atoms: _413  and  _414
REMARK  158  A    between atoms: _417  and  _419
REMARK  159  A    between atoms: _419  and  _420
REMARK  160  A    between atoms: _419  and  _422
REMARK  161  A    between atoms: _422  and  _423
REMARK  162  A    between atoms: _423  and  _424
REMARK  163  A    between atoms: _424  and  _425
REMARK  164  A    between atoms: _425  and  _426
REMARK  165  A    between atoms: _430  and  _432
REMARK  166  A    between atoms: _432  and  _433
REMARK  167  A    between atoms: _436  and  _438
REMARK  168  A    between atoms: _438  and  _439
REMARK  169  A    between atoms: _441  and  _443
REMARK  170  A    between atoms: _443  and  _444
REMARK  171  A    between atoms: _443  and  _446
REMARK  172  A    between atoms: _446  and  _447
REMARK  173  A    between atoms: _450  and  _452
REMARK  174  A    between atoms: _452  and  _453
REMARK  175  A    between atoms: _452  and  _455
REMARK  176  A    between atoms: _455  and  _456
REMARK  177  A    between atoms: _456  and  _457
REMARK  178  A    between atoms: _460  and  _462
REMARK  179  A    between atoms: _462  and  _463
REMARK  180  A    between atoms: _465  and  _467
REMARK  181  A    between atoms: _467  and  _468
REMARK  182  A    between atoms: _467  and  _470
REMARK  183  A    between atoms: _470  and  _471
REMARK  184  A    between atoms: _477  and  _479
REMARK  185  A    between atoms: _479  and  _480
REMARK  186  A    between atoms: _479  and  _482
REMARK  187  A    between atoms: _482  and  _483
REMARK  188  A    between atoms: _486  and  _488
REMARK  189  A    between atoms: _488  and  _489
REMARK  190  A    between atoms: _488  and  _491
REMARK  191  A    between atoms: _491  and  _492
REMARK  192  A    between atoms: _492  and  _493
REMARK  193  A    between atoms: _493  and  _494
REMARK  194  A    between atoms: _503  and  _505
REMARK  195  A    between atoms: _505  and  _506
REMARK  196  A    between atoms: _509  and  _511
REMARK  197  A    between atoms: _511  and  _512
REMARK  198  A    between atoms: _511  and  _514
REMARK  199  A    between atoms: _514  and  _515
REMARK                            x       y       z     vdW  Elec       q    Type
REMARK                         _______ _______ _______ _____ _____    ______ ____
ROOT
ATOM      1  O   HOH     1      11.495  -4.003  40.170  0.00  0.00    +0.000 OA
ENDROOT
TORSDOF 0
REMARK  Name = ../refined-set-2016/4bny/4bny_pocket.pdb
REMARK  199 active torsions:
REMARK  status: ('A' for Active; 'I' for Inactive)
REMARK    1  A    between atoms: _1  and  _3
REMARK    2  A    between atoms: _3  and  _4
REMARK    3  A    between atoms: _3  and  _6
REMARK    4  A    between atoms: _6  and  _7
REMARK    5  A    between atoms: _17  and  _19
REMARK    6  A    between atoms: _19  and  _20
REMARK    7  A    between atoms: _19  and  _22
REMARK    8  A    between atoms: _22  and  _23
REMARK    9  A    between atoms: _29  and  _31
REMARK   10  A    between atoms: _31  and  _32
REMARK   11  A    between atoms: _31  and  _34
REMARK   12  A    between atoms: _34  and  _35
REMARK   13  A    between atoms: _38  and  _40
REMARK   14  A    between atoms: _40  and  _41
REMARK   15  A    between atoms: _40  and  _43
REMARK   16  A    between atoms: _46  and  _48
REMARK   17  A    between atoms: _48  and  _49
REMARK   18  A    between atoms: _48  and  _51
REMARK   19  A    between atoms: _54  and  _56
REMARK   20  A    between atoms: _56  and  _57
REMARK   21  A    between atoms: _56  and  _59
REMARK   22  A    between atoms: _59  and  _60
REMARK   23  A    between atoms: _65  and  _67
REMARK   24  A    between atoms: _67  and  _68
REMARK   25  A    between atoms: _67  and  _70
REMARK   26  A    between atoms: _70  and  _71
REMARK   27  A    between atoms: _74  and  _76
REMARK   28  A    between atoms: _76  and  _77
REMARK   29  A    between atoms: _76  and  _79
REMARK   30  A    between atoms: _79  and  _80
REMARK   31  A    between atoms: _85  and  _87
REMARK   32  A    between atoms: _87  and  _88
REMARK   33  A    between atoms: _87  and  _90
REMARK   34  A    between atoms: _90  and  _91
REMARK   35  A    between atoms: _94  and  _96
REMARK   36  A    between atoms: _96  and  _97
REMARK   37  A    between atoms: _96  and  _99
REMARK   38  A    between atoms: _99  and  _100
REMARK   39  A    between atoms: _105  and  _107
REMARK   40  A    between atoms: _107  and  _108
REMARK   41  A    between atoms: _107  and  _110
REMARK   42  A    between atoms: _110  and  _111
REMARK   43  A    between atoms: _116  and  _117
REMARK   44  A    between atoms: _119  and  _121
REMARK   45  A    between atoms: _121  and  _122
REMARK   46  A    between atoms: _121  and  _124
REMARK   47  A    between atoms: _124  and  _125
REMARK   48  A    between atoms: _128  and  _130
REMARK   49  A    between atoms: _130  and  _131
REMARK   50  A    between atoms: _130  and  _133
REMARK   51  A    between atoms: _133  and  _134
REMARK   52  A    between atoms: _139  and  _141
REMARK   53  A    between atoms: _141  and  _142
REMARK   54  A    between atoms: _145  and  _147
REMARK   55  A    between atoms: _147  and  _148
REMARK   56  A    between atoms: _151  and  _153
REMARK   57  A    between atoms: _153  and  _154
REMARK   58  A    between atoms: _157  and  _159
REMARK   59  A    between atoms: _159  and  _160
REMARK   60  A    between atoms: _159  and  _162
REMARK   61  A    between atoms: _162  and  _163
REMARK   62  A    between atoms: _163  and  _164
REMARK   63  A    between atoms: _164  and  _165
REMARK   64  A    between atoms: _165  and  _166
REMARK   65  A    between atoms: _170  and  _172
REMARK   66  A    between atoms: _172  and  _173
REMARK   67  A    between atoms: _176  and  _178
REMARK   68  A    between atoms: _178  and  _179
REMARK   69  A    between atoms: _181  and  _183
REMARK   70  A    between atoms: _183  and  _184
REMARK   71  A    between atoms: _183  and  _186
REMARK   72  A    between atoms: _186  and  _187
REMARK   73  A    between atoms: _190  and  _192
REMARK   74  A    between atoms: _192  and  _193
REMARK   75  A    between atoms: _192  and  _195
REMARK   76  A    between atoms: _195  and  _196
REMARK   77  A    between atoms: _196  and  _197
REMARK   78  A    between atoms: _200  and  _202
REMARK   79  A    between atoms: _202  and  _203
REMARK   80  A    between atoms: _205  and  _207
REMARK   81  A    between atoms: _207  and  _208
REMARK   82  A    between atoms: _207  and  _210
REMARK   83  A    between atoms: _210  and  _211
REMARK   84  A    between atoms: _217  and  _219
REMARK   85  A    between atoms: _219  and  _220
REMARK   86  A    between atoms: _219  and  _222
REMARK   87  A    between atoms: _222  and  _223
REMARK   88  A    between atoms: _226  and  _228
REMARK   89  A    between atoms: _228  and  _229
REMARK   90  A    between atoms: _228  and  _231
REMARK   91  A    between atoms: _231  and  _232
REMARK   92  A    between atoms: _232  and  _233
REMARK   93  A    between atoms: _233  and  _234
REMARK   94  A    between atoms: _243  and  _245
REMARK   95  A    between atoms: _245  and  _246
REMARK   96  A    between atoms: _249  and  _251
REMARK   97  A    between atoms: _251  and  _252
REMARK   98  A    between atoms: _251  and  _254
REMARK   99  A    between atoms: _254  and  _255
REMARK  100  A    between atoms: _258  and  _260
REMARK  101  A    between atoms: _260  and  _261
REMARK  102  A    between atoms: _260  and  _263
REMARK  103  A    between atoms: _263  and  _264
REMARK  104  A    between atoms: _264  and  _265
REMARK  105  A    between atoms: _265  and  _266
REMARK  106  A    between atoms: _275  and  _277
REMARK  107  A    between atoms: _277  and  _278
REMARK  108  A    between atoms: _277  and  _280
REMARK  109  A    between atoms: _280  and  _281
REMARK  110  A    between atoms: _291  and  _293
REMARK  111  A    between atoms: _293  and  _294
REMARK  112  A    between atoms: _293  and  _296
REMARK  113  A    between atoms: _296  and  _297
REMARK  114  A    between atoms: _303  and  _305
REMARK  115  A    between atoms: _305  and  _306
REMARK  116  A    between atoms: _305  and  _308
REMARK  117  A    between atoms: _308  and  _309
REMARK  118  A    between atoms: _312  and  _314
REMARK  119  A    between atoms: _314  and  _315
REMARK  120  A    between atoms: _314  and  _317
REMARK  121  A    between atoms: _320  and  _322
REMARK  122  A    between atoms: _322  and  _323
REMARK  123  A    between atoms: _322  and  _325
REMARK  124  A    between atoms: _328  and  _330
REMARK  125  A    between atoms: _330  and  _331
REMARK  126  A    between atoms: _330  and  _333
REMARK  127  A    between atoms: _333  and  _334
REMARK  128  A    between atoms: _339  and  _341
REMARK  129  A    between atoms: _341  and  _342
REMARK  130  A    between atoms: _341  and  _344
REMARK  131  A    between atoms: _344  and  _345
REMARK  132  A    between atoms: _348  and  _350
REMARK  133  A    between atoms: _350  and  _351
REMARK  134  A    between atoms: _350  and  _353
REMARK  135  A    between atoms: _353  and  _354
REMARK  136  A    between atoms: _359  and  _361
REMARK  137  A    between atoms: _361  and  _362
REMARK  138  A    between atoms: _361  and  _364
REMARK  139  A    between atoms: _364  and  _365
REMARK  140  A    between atoms: _368  and  _370
REMARK  141  A    between atoms: _370  and  _371
REMARK  142  A    between atoms: _370  and  _373
REMARK  143  A    between atoms: _373  and  _374
REMARK  144  A    between atoms: _379  and  _381
REMARK  145  A    between atoms: _381  and  _382
REMARK  146  A    between atoms: _381  and  _384
REMARK  147  A    between atoms: _384  and  _385
REMARK  148  A    between atoms: _388  and  _390
REMARK  149  A    between atoms: _390  and  _391
REMARK  150  A    between atoms: _390  and  _393
REMARK  151  A    between atoms: _393  and  _394
REMARK  152  A    between atoms: _399  and  _401
REMARK  153  A    between atoms: _401  and  _402
REMARK  154  A    between atoms: _405  and  _407
REMARK  155  A    between atoms: _407  and  _408
REMARK  156  A    between atoms: _411  and  _413
REMARK  157  A    between atoms: _413  and  _414
REMARK  158  A    between atoms: _417  and  _419
REMARK  159  A    between atoms: _419  and  _420
REMARK  160  A    between atoms: _419  and  _422
REMARK  161  A    between atoms: _422  and  _423
REMARK  162  A    between atoms: _423  and  _424
REMARK  163  A    between atoms: _424  and  _425
REMARK  164  A    between atoms: _425  and  _426
REMARK  165  A    between atoms: _430  and  _432
REMARK  166  A    between atoms: _432  and  _433
REMARK  167  A    between atoms: _436  and  _438
REMARK  168  A    between atoms: _438  and  _439
REMARK  169  A    between atoms: _441  and  _443
REMARK  170  A    between atoms: _443  and  _444
REMARK  171  A    between atoms: _443  and  _446
REMARK  172  A    between atoms: _446  and  _447
REMARK  173  A    between atoms: _450  and  _452
REMARK  174  A    between atoms: _452  and  _453
REMARK  175  A    between atoms: _452  and  _455
REMARK  176  A    between atoms: _455  and  _456
REMARK  177  A    between atoms: _456  and  _457
REMARK  178  A    between atoms: _460  and  _462
REMARK  179  A    between atoms: _462  and  _463
REMARK  180  A    between atoms: _465  and  _467
REMARK  181  A    between atoms: _467  and  _468
REMARK  182  A    between atoms: _467  and  _470
REMARK  183  A    between atoms: _470  and  _471
REMARK  184  A    between atoms: _477  and  _479
REMARK  185  A    between atoms: _479  and  _480
REMARK  186  A    between atoms: _479  and  _482
REMARK  187  A    between atoms: _482  and  _483
REMARK  188  A    between atoms: _486  and  _488
REMARK  189  A    between atoms: _488  and  _489
REMARK  190  A    between atoms: _488  and  _491
REMARK  191  A    between atoms: _491  and  _492
REMARK  192  A    between atoms: _492  and  _493
REMARK  193  A    between atoms: _493  and  _494
REMARK  194  A    between atoms: _503  and  _505
REMARK  195  A    between atoms: _505  and  _506
REMARK  196  A    between atoms: _509  and  _511
REMARK  197  A    between atoms: _511  and  _512
REMARK  198  A    between atoms: _511  and  _514
REMARK  199  A    between atoms: _514  and  _515
REMARK                            x       y       z     vdW  Elec       q    Type
REMARK                         _______ _______ _______ _____ _____    ______ ____
ROOT
ATOM      1  O   HOH     1      18.796  -3.530  31.569  0.00  0.00    +0.000 OA
ENDROOT
TORSDOF 0
REMARK  Name = ../refined-set-2016/4bny/4bny_pocket.pdb
REMARK  199 active torsions:
REMARK  status: ('A' for Active; 'I' for Inactive)
REMARK    1  A    between atoms: _1  and  _3
REMARK    2  A    between atoms: _3  and  _4
REMARK    3  A    between atoms: _3  and  _6
REMARK    4  A    between atoms: _6  and  _7
REMARK    5  A    between atoms: _17  and  _19
REMARK    6  A    between atoms: _19  and  _20
REMARK    7  A    between atoms: _19  and  _22
REMARK    8  A    between atoms: _22  and  _23
REMARK    9  A    between atoms: _29  and  _31
REMARK   10  A    between atoms: _31  and  _32
REMARK   11  A    between atoms: _31  and  _34
REMARK   12  A    between atoms: _34  and  _35
REMARK   13  A    between atoms: _38  and  _40
REMARK   14  A    between atoms: _40  and  _41
REMARK   15  A    between atoms: _40  and  _43
REMARK   16  A    between atoms: _46  and  _48
REMARK   17  A    between atoms: _48  and  _49
REMARK   18  A    between atoms: _48  and  _51
REMARK   19  A    between atoms: _54  and  _56
REMARK   20  A    between atoms: _56  and  _57
REMARK   21  A    between atoms: _56  and  _59
REMARK   22  A    between atoms: _59  and  _60
REMARK   23  A    between atoms: _65  and  _67
REMARK   24  A    between atoms: _67  and  _68
REMARK   25  A    between atoms: _67  and  _70
REMARK   26  A    between atoms: _70  and  _71
REMARK   27  A    between atoms: _74  and  _76
REMARK   28  A    between atoms: _76  and  _77
REMARK   29  A    between atoms: _76  and  _79
REMARK   30  A    between atoms: _79  and  _80
REMARK   31  A    between atoms: _85  and  _87
REMARK   32  A    between atoms: _87  and  _88
REMARK   33  A    between atoms: _87  and  _90
REMARK   34  A    between atoms: _90  and  _91
REMARK   35  A    between atoms: _94  and  _96
REMARK   36  A    between atoms: _96  and  _97
REMARK   37  A    between atoms: _96  and  _99
REMARK   38  A    between atoms: _99  and  _100
REMARK   39  A    between atoms: _105  and  _107
REMARK   40  A    between atoms: _107  and  _108
REMARK   41  A    between atoms: _107  and  _110
REMARK   42  A    between atoms: _110  and  _111
REMARK   43  A    between atoms: _116  and  _117
REMARK   44  A    between atoms: _119  and  _121
REMARK   45  A    between atoms: _121  and  _122
REMARK   46  A    between atoms: _121  and  _124
REMARK   47  A    between atoms: _124  and  _125
REMARK   48  A    between atoms: _128  and  _130
REMARK   49  A    between atoms: _130  and  _131
REMARK   50  A    between atoms: _130  and  _133
REMARK   51  A    between atoms: _133  and  _134
REMARK   52  A    between atoms: _139  and  _141
REMARK   53  A    between atoms: _141  and  _142
REMARK   54  A    between atoms: _145  and  _147
REMARK   55  A    between atoms: _147  and  _148
REMARK   56  A    between atoms: _151  and  _153
REMARK   57  A    between atoms: _153  and  _154
REMARK   58  A    between atoms: _157  and  _159
REMARK   59  A    between atoms: _159  and  _160
REMARK   60  A    between atoms: _159  and  _162
REMARK   61  A    between atoms: _162  and  _163
REMARK   62  A    between atoms: _163  and  _164
REMARK   63  A    between atoms: _164  and  _165
REMARK   64  A    between atoms: _165  and  _166
REMARK   65  A    between atoms: _170  and  _172
REMARK   66  A    between atoms: _172  and  _173
REMARK   67  A    between atoms: _176  and  _178
REMARK   68  A    between atoms: _178  and  _179
REMARK   69  A    between atoms: _181  and  _183
REMARK   70  A    between atoms: _183  and  _184
REMARK   71  A    between atoms: _183  and  _186
REMARK   72  A    between atoms: _186  and  _187
REMARK   73  A    between atoms: _190  and  _192
REMARK   74  A    between atoms: _192  and  _193
REMARK   75  A    between atoms: _192  and  _195
REMARK   76  A    between atoms: _195  and  _196
REMARK   77  A    between atoms: _196  and  _197
REMARK   78  A    between atoms: _200  and  _202
REMARK   79  A    between atoms: _202  and  _203
REMARK   80  A    between atoms: _205  and  _207
REMARK   81  A    between atoms: _207  and  _208
REMARK   82  A    between atoms: _207  and  _210
REMARK   83  A    between atoms: _210  and  _211
REMARK   84  A    between atoms: _217  and  _219
REMARK   85  A    between atoms: _219  and  _220
REMARK   86  A    between atoms: _219  and  _222
REMARK   87  A    between atoms: _222  and  _223
REMARK   88  A    between atoms: _226  and  _228
REMARK   89  A    between atoms: _228  and  _229
REMARK   90  A    between atoms: _228  and  _231
REMARK   91  A    between atoms: _231  and  _232
REMARK   92  A    between atoms: _232  and  _233
REMARK   93  A    between atoms: _233  and  _234
REMARK   94  A    between atoms: _243  and  _245
REMARK   95  A    between atoms: _245  and  _246
REMARK   96  A    between atoms: _249  and  _251
REMARK   97  A    between atoms: _251  and  _252
REMARK   98  A    between atoms: _251  and  _254
REMARK   99  A    between atoms: _254  and  _255
REMARK  100  A    between atoms: _258  and  _260
REMARK  101  A    between atoms: _260  and  _261
REMARK  102  A    between atoms: _260  and  _263
REMARK  103  A    between atoms: _263  and  _264
REMARK  104  A    between atoms: _264  and  _265
REMARK  105  A    between atoms: _265  and  _266
REMARK  106  A    between atoms: _275  and  _277
REMARK  107  A    between atoms: _277  and  _278
REMARK  108  A    between atoms: _277  and  _280
REMARK  109  A    between atoms: _280  and  _281
REMARK  110  A    between atoms: _291  and  _293
REMARK  111  A    between atoms: _293  and  _294
REMARK  112  A    between atoms: _293  and  _296
REMARK  113  A    between atoms: _296  and  _297
REMARK  114  A    between atoms: _303  and  _305
REMARK  115  A    between atoms: _305  and  _306
REMARK  116  A    between atoms: _305  and  _308
REMARK  117  A    between atoms: _308  and  _309
REMARK  118  A    between atoms: _312  and  _314
REMARK  119  A    between atoms: _314  and  _315
REMARK  120  A    between atoms: _314  and  _317
REMARK  121  A    between atoms: _320  and  _322
REMARK  122  A    between atoms: _322  and  _323
REMARK  123  A    between atoms: _322  and  _325
REMARK  124  A    between atoms: _328  and  _330
REMARK  125  A    between atoms: _330  and  _331
REMARK  126  A    between atoms: _330  and  _333
REMARK  127  A    between atoms: _333  and  _334
REMARK  128  A    between atoms: _339  and  _341
REMARK  129  A    between atoms: _341  and  _342
REMARK  130  A    between atoms: _341  and  _344
REMARK  131  A    between atoms: _344  and  _345
REMARK  132  A    between atoms: _348  and  _350
REMARK  133  A    between atoms: _350  and  _351
REMARK  134  A    between atoms: _350  and  _353
REMARK  135  A    between atoms: _353  and  _354
REMARK  136  A    between atoms: _359  and  _361
REMARK  137  A    between atoms: _361  and  _362
REMARK  138  A    between atoms: _361  and  _364
REMARK  139  A    between atoms: _364  and  _365
REMARK  140  A    between atoms: _368  and  _370
REMARK  141  A    between atoms: _370  and  _371
REMARK  142  A    between atoms: _370  and  _373
REMARK  143  A    between atoms: _373  and  _374
REMARK  144  A    between atoms: _379  and  _381
REMARK  145  A    between atoms: _381  and  _382
REMARK  146  A    between atoms: _381  and  _384
REMARK  147  A    between atoms: _384  and  _385
REMARK  148  A    between atoms: _388  and  _390
REMARK  149  A    between atoms: _390  and  _391
REMARK  150  A    between atoms: _390  and  _393
REMARK  151  A    between atoms: _393  and  _394
REMARK  152  A    between atoms: _399  and  _401
REMARK  153  A    between atoms: _401  and  _402
REMARK  154  A    between atoms: _405  and  _407
REMARK  155  A    between atoms: _407  and  _408
REMARK  156  A    between atoms: _411  and  _413
REMARK  157  A    between atoms: _413  and  _414
REMARK  158  A    between atoms: _417  and  _419
REMARK  159  A    between atoms: _419  and  _420
REMARK  160  A    between atoms: _419  and  _422
REMARK  161  A    between atoms: _422  and  _423
REMARK  162  A    between atoms: _423  and  _424
REMARK  163  A    between atoms: _424  and  _425
REMARK  164  A    between atoms: _425  and  _426
REMARK  165  A    between atoms: _430  and  _432
REMARK  166  A    between atoms: _432  and  _433
REMARK  167  A    between atoms: _436  and  _438
REMARK  168  A    between atoms: _438  and  _439
REMARK  169  A    between atoms: _441  and  _443
REMARK  170  A    between atoms: _443  and  _444
REMARK  171  A    between atoms: _443  and  _446
REMARK  172  A    between atoms: _446  and  _447
REMARK  173  A    between atoms: _450  and  _452
REMARK  174  A    between atoms: _452  and  _453
REMARK  175  A    between atoms: _452  and  _455
REMARK  176  A    between atoms: _455  and  _456
REMARK  177  A    between atoms: _456  and  _457
REMARK  178  A    between atoms: _460  and  _462
REMARK  179  A    between atoms: _462  and  _463
REMARK  180  A    between atoms: _465  and  _467
REMARK  181  A    between atoms: _467  and  _468
REMARK  182  A    between atoms: _467  and  _470
REMARK  183  A    between atoms: _470  and  _471
REMARK  184  A    between atoms: _477  and  _479
REMARK  185  A    between atoms: _479  and  _480
REMARK  186  A    between atoms: _479  and  _482
REMARK  187  A    between atoms: _482  and  _483
REMARK  188  A    between atoms: _486  and  _488
REMARK  189  A    between atoms: _488  and  _489
REMARK  190  A    between atoms: _488  and  _491
REMARK  191  A    between atoms: _491  and  _492
REMARK  192  A    between atoms: _492  and  _493
REMARK  193  A    between atoms: _493  and  _494
REMARK  194  A    between atoms: _503  and  _505
REMARK  195  A    between atoms: _505  and  _506
REMARK  196  A    between atoms: _509  and  _511
REMARK  197  A    between atoms: _511  and  _512
REMARK  198  A    between atoms: _511  and  _514
REMARK  199  A    between atoms: _514  and  _515
REMARK                            x       y       z     vdW  Elec       q    Type
REMARK                         _______ _______ _______ _____ _____    ______ ____
ROOT
ATOM      1  O   HOH     1      18.280   0.940  35.440  0.00  0.00    +0.000 OA
ENDROOT
TORSDOF 0
REMARK  Name = ../refined-set-2016/4bny/4bny_pocket.pdb
REMARK  199 active torsions:
REMARK  status: ('A' for Active; 'I' for Inactive)
REMARK    1  A    between atoms: _1  and  _3
REMARK    2  A    between atoms: _3  and  _4
REMARK    3  A    between atoms: _3  and  _6
REMARK    4  A    between atoms: _6  and  _7
REMARK    5  A    between atoms: _17  and  _19
REMARK    6  A    between atoms: _19  and  _20
REMARK    7  A    between atoms: _19  and  _22
REMARK    8  A    between atoms: _22  and  _23
REMARK    9  A    between atoms: _29  and  _31
REMARK   10  A    between atoms: _31  and  _32
REMARK   11  A    between atoms: _31  and  _34
REMARK   12  A    between atoms: _34  and  _35
REMARK   13  A    between atoms: _38  and  _40
REMARK   14  A    between atoms: _40  and  _41
REMARK   15  A    between atoms: _40  and  _43
REMARK   16  A    between atoms: _46  and  _48
REMARK   17  A    between atoms: _48  and  _49
REMARK   18  A    between atoms: _48  and  _51
REMARK   19  A    between atoms: _54  and  _56
REMARK   20  A    between atoms: _56  and  _57
REMARK   21  A    between atoms: _56  and  _59
REMARK   22  A    between atoms: _59  and  _60
REMARK   23  A    between atoms: _65  and  _67
REMARK   24  A    between atoms: _67  and  _68
REMARK   25  A    between atoms: _67  and  _70
REMARK   26  A    between atoms: _70  and  _71
REMARK   27  A    between atoms: _74  and  _76
REMARK   28  A    between atoms: _76  and  _77
REMARK   29  A    between atoms: _76  and  _79
REMARK   30  A    between atoms: _79  and  _80
REMARK   31  A    between atoms: _85  and  _87
REMARK   32  A    between atoms: _87  and  _88
REMARK   33  A    between atoms: _87  and  _90
REMARK   34  A    between atoms: _90  and  _91
REMARK   35  A    between atoms: _94  and  _96
REMARK   36  A    between atoms: _96  and  _97
REMARK   37  A    between atoms: _96  and  _99
REMARK   38  A    between atoms: _99  and  _100
REMARK   39  A    between atoms: _105  and  _107
REMARK   40  A    between atoms: _107  and  _108
REMARK   41  A    between atoms: _107  and  _110
REMARK   42  A    between atoms: _110  and  _111
REMARK   43  A    between atoms: _116  and  _117
REMARK   44  A    between atoms: _119  and  _121
REMARK   45  A    between atoms: _121  and  _122
REMARK   46  A    between atoms: _121  and  _124
REMARK   47  A    between atoms: _124  and  _125
REMARK   48  A    between atoms: _128  and  _130
REMARK   49  A    between atoms: _130  and  _131
REMARK   50  A    between atoms: _130  and  _133
REMARK   51  A    between atoms: _133  and  _134
REMARK   52  A    between atoms: _139  and  _141
REMARK   53  A    between atoms: _141  and  _142
REMARK   54  A    between atoms: _145  and  _147
REMARK   55  A    between atoms: _147  and  _148
REMARK   56  A    between atoms: _151  and  _153
REMARK   57  A    between atoms: _153  and  _154
REMARK   58  A    between atoms: _157  and  _159
REMARK   59  A    between atoms: _159  and  _160
REMARK   60  A    between atoms: _159  and  _162
REMARK   61  A    between atoms: _162  and  _163
REMARK   62  A    between atoms: _163  and  _164
REMARK   63  A    between atoms: _164  and  _165
REMARK   64  A    between atoms: _165  and  _166
REMARK   65  A    between atoms: _170  and  _172
REMARK   66  A    between atoms: _172  and  _173
REMARK   67  A    between atoms: _176  and  _178
REMARK   68  A    between atoms: _178  and  _179
REMARK   69  A    between atoms: _181  and  _183
REMARK   70  A    between atoms: _183  and  _184
REMARK   71  A    between atoms: _183  and  _186
REMARK   72  A    between atoms: _186  and  _187
REMARK   73  A    between atoms: _190  and  _192
REMARK   74  A    between atoms: _192  and  _193
REMARK   75  A    between atoms: _192  and  _195
REMARK   76  A    between atoms: _195  and  _196
REMARK   77  A    between atoms: _196  and  _197
REMARK   78  A    between atoms: _200  and  _202
REMARK   79  A    between atoms: _202  and  _203
REMARK   80  A    between atoms: _205  and  _207
REMARK   81  A    between atoms: _207  and  _208
REMARK   82  A    between atoms: _207  and  _210
REMARK   83  A    between atoms: _210  and  _211
REMARK   84  A    between atoms: _217  and  _219
REMARK   85  A    between atoms: _219  and  _220
REMARK   86  A    between atoms: _219  and  _222
REMARK   87  A    between atoms: _222  and  _223
REMARK   88  A    between atoms: _226  and  _228
REMARK   89  A    between atoms: _228  and  _229
REMARK   90  A    between atoms: _228  and  _231
REMARK   91  A    between atoms: _231  and  _232
REMARK   92  A    between atoms: _232  and  _233
REMARK   93  A    between atoms: _233  and  _234
REMARK   94  A    between atoms: _243  and  _245
REMARK   95  A    between atoms: _245  and  _246
REMARK   96  A    between atoms: _249  and  _251
REMARK   97  A    between atoms: _251  and  _252
REMARK   98  A    between atoms: _251  and  _254
REMARK   99  A    between atoms: _254  and  _255
REMARK  100  A    between atoms: _258  and  _260
REMARK  101  A    between atoms: _260  and  _261
REMARK  102  A    between atoms: _260  and  _263
REMARK  103  A    between atoms: _263  and  _264
REMARK  104  A    between atoms: _264  and  _265
REMARK  105  A    between atoms: _265  and  _266
REMARK  106  A    between atoms: _275  and  _277
REMARK  107  A    between atoms: _277  and  _278
REMARK  108  A    between atoms: _277  and  _280
REMARK  109  A    between atoms: _280  and  _281
REMARK  110  A    between atoms: _291  and  _293
REMARK  111  A    between atoms: _293  and  _294
REMARK  112  A    between atoms: _293  and  _296
REMARK  113  A    between atoms: _296  and  _297
REMARK  114  A    between atoms: _303  and  _305
REMARK  115  A    between atoms: _305  and  _306
REMARK  116  A    between atoms: _305  and  _308
REMARK  117  A    between atoms: _308  and  _309
REMARK  118  A    between atoms: _312  and  _314
REMARK  119  A    between atoms: _314  and  _315
REMARK  120  A    between atoms: _314  and  _317
REMARK  121  A    between atoms: _320  and  _322
REMARK  122  A    between atoms: _322  and  _323
REMARK  123  A    between atoms: _322  and  _325
REMARK  124  A    between atoms: _328  and  _330
REMARK  125  A    between atoms: _330  and  _331
REMARK  126  A    between atoms: _330  and  _333
REMARK  127  A    between atoms: _333  and  _334
REMARK  128  A    between atoms: _339  and  _341
REMARK  129  A    between atoms: _341  and  _342
REMARK  130  A    between atoms: _341  and  _344
REMARK  131  A    between atoms: _344  and  _345
REMARK  132  A    between atoms: _348  and  _350
REMARK  133  A    between atoms: _350  and  _351
REMARK  134  A    between atoms: _350  and  _353
REMARK  135  A    between atoms: _353  and  _354
REMARK  136  A    between atoms: _359  and  _361
REMARK  137  A    between atoms: _361  and  _362
REMARK  138  A    between atoms: _361  and  _364
REMARK  139  A    between atoms: _364  and  _365
REMARK  140  A    between atoms: _368  and  _370
REMARK  141  A    between atoms: _370  and  _371
REMARK  142  A    between atoms: _370  and  _373
REMARK  143  A    between atoms: _373  and  _374
REMARK  144  A    between atoms: _379  and  _381
REMARK  145  A    between atoms: _381  and  _382
REMARK  146  A    between atoms: _381  and  _384
REMARK  147  A    between atoms: _384  and  _385
REMARK  148  A    between atoms: _388  and  _390
REMARK  149  A    between atoms: _390  and  _391
REMARK  150  A    between atoms: _390  and  _393
REMARK  151  A    between atoms: _393  and  _394
REMARK  152  A    between atoms: _399  and  _401
REMARK  153  A    between atoms: _401  and  _402
REMARK  154  A    between atoms: _405  and  _407
REMARK  155  A    between atoms: _407  and  _408
REMARK  156  A    between atoms: _411  and  _413
REMARK  157  A    between atoms: _413  and  _414
REMARK  158  A    between atoms: _417  and  _419
REMARK  159  A    between atoms: _419  and  _420
REMARK  160  A    between atoms: _419  and  _422
REMARK  161  A    between atoms: _422  and  _423
REMARK  162  A    between atoms: _423  and  _424
REMARK  163  A    between atoms: _424  and  _425
REMARK  164  A    between atoms: _425  and  _426
REMARK  165  A    between atoms: _430  and  _432
REMARK  166  A    between atoms: _432  and  _433
REMARK  167  A    between atoms: _436  and  _438
REMARK  168  A    between atoms: _438  and  _439
REMARK  169  A    between atoms: _441  and  _443
REMARK  170  A    between atoms: _443  and  _444
REMARK  171  A    between atoms: _443  and  _446
REMARK  172  A    between atoms: _446  and  _447
REMARK  173  A    between atoms: _450  and  _452
REMARK  174  A    between atoms: _452  and  _453
REMARK  175  A    between atoms: _452  and  _455
REMARK  176  A    between atoms: _455  and  _456
REMARK  177  A    between atoms: _456  and  _457
REMARK  178  A    between atoms: _460  and  _462
REMARK  179  A    between atoms: _462  and  _463
REMARK  180  A    between atoms: _465  and  _467
REMARK  181  A    between atoms: _467  and  _468
REMARK  182  A    between atoms: _467  and  _470
REMARK  183  A    between atoms: _470  and  _471
REMARK  184  A    between atoms: _477  and  _479
REMARK  185  A    between atoms: _479  and  _480
REMARK  186  A    between atoms: _479  and  _482
REMARK  187  A    between atoms: _482  and  _483
REMARK  188  A    between atoms: _486  and  _488
REMARK  189  A    between atoms: _488  and  _489
REMARK  190  A    between atoms: _488  and  _491
REMARK  191  A    between atoms: _491  and  _492
REMARK  192  A    between atoms: _492  and  _493
REMARK  193  A    between atoms: _493  and  _494
REMARK  194  A    between atoms: _503  and  _505
REMARK  195  A    between atoms: _505  and  _506
REMARK  196  A    between atoms: _509  and  _511
REMARK  197  A    between atoms: _511  and  _512
REMARK  198  A    between atoms: _511  and  _514
REMARK  199  A    between atoms: _514  and  _515
REMARK                            x       y       z     vdW  Elec       q    Type
REMARK                         _______ _______ _______ _____ _____    ______ ____
ROOT
ATOM      1  O   HOH     1      16.682  -1.728  31.817  0.00  0.00    +0.000 OA
ENDROOT
TORSDOF 0
REMARK  Name = ../refined-set-2016/4bny/4bny_pocket.pdb
REMARK  199 active torsions:
REMARK  status: ('A' for Active; 'I' for Inactive)
REMARK    1  A    between atoms: _1  and  _3
REMARK    2  A    between atoms: _3  and  _4
REMARK    3  A    between atoms: _3  and  _6
REMARK    4  A    between atoms: _6  and  _7
REMARK    5  A    between atoms: _17  and  _19
REMARK    6  A    between atoms: _19  and  _20
REMARK    7  A    between atoms: _19  and  _22
REMARK    8  A    between atoms: _22  and  _23
REMARK    9  A    between atoms: _29  and  _31
REMARK   10  A    between atoms: _31  and  _32
REMARK   11  A    between atoms: _31  and  _34
REMARK   12  A    between atoms: _34  and  _35
REMARK   13  A    between atoms: _38  and  _40
REMARK   14  A    between atoms: _40  and  _41
REMARK   15  A    between atoms: _40  and  _43
REMARK   16  A    between atoms: _46  and  _48
REMARK   17  A    between atoms: _48  and  _49
REMARK   18  A    between atoms: _48  and  _51
REMARK   19  A    between atoms: _54  and  _56
REMARK   20  A    between atoms: _56  and  _57
REMARK   21  A    between atoms: _56  and  _59
REMARK   22  A    between atoms: _59  and  _60
REMARK   23  A    between atoms: _65  and  _67
REMARK   24  A    between atoms: _67  and  _68
REMARK   25  A    between atoms: _67  and  _70
REMARK   26  A    between atoms: _70  and  _71
REMARK   27  A    between atoms: _74  and  _76
REMARK   28  A    between atoms: _76  and  _77
REMARK   29  A    between atoms: _76  and  _79
REMARK   30  A    between atoms: _79  and  _80
REMARK   31  A    between atoms: _85  and  _87
REMARK   32  A    between atoms: _87  and  _88
REMARK   33  A    between atoms: _87  and  _90
REMARK   34  A    between atoms: _90  and  _91
REMARK   35  A    between atoms: _94  and  _96
REMARK   36  A    between atoms: _96  and  _97
REMARK   37  A    between atoms: _96  and  _99
REMARK   38  A    between atoms: _99  and  _100
REMARK   39  A    between atoms: _105  and  _107
REMARK   40  A    between atoms: _107  and  _108
REMARK   41  A    between atoms: _107  and  _110
REMARK   42  A    between atoms: _110  and  _111
REMARK   43  A    between atoms: _116  and  _117
REMARK   44  A    between atoms: _119  and  _121
REMARK   45  A    between atoms: _121  and  _122
REMARK   46  A    between atoms: _121  and  _124
REMARK   47  A    between atoms: _124  and  _125
REMARK   48  A    between atoms: _128  and  _130
REMARK   49  A    between atoms: _130  and  _131
REMARK   50  A    between atoms: _130  and  _133
REMARK   51  A    between atoms: _133  and  _134
REMARK   52  A    between atoms: _139  and  _141
REMARK   53  A    between atoms: _141  and  _142
REMARK   54  A    between atoms: _145  and  _147
REMARK   55  A    between atoms: _147  and  _148
REMARK   56  A    between atoms: _151  and  _153
REMARK   57  A    between atoms: _153  and  _154
REMARK   58  A    between atoms: _157  and  _159
REMARK   59  A    between atoms: _159  and  _160
REMARK   60  A    between atoms: _159  and  _162
REMARK   61  A    between atoms: _162  and  _163
REMARK   62  A    between atoms: _163  and  _164
REMARK   63  A    between atoms: _164  and  _165
REMARK   64  A    between atoms: _165  and  _166
REMARK   65  A    between atoms: _170  and  _172
REMARK   66  A    between atoms: _172  and  _173
REMARK   67  A    between atoms: _176  and  _178
REMARK   68  A    between atoms: _178  and  _179
REMARK   69  A    between atoms: _181  and  _183
REMARK   70  A    between atoms: _183  and  _184
REMARK   71  A    between atoms: _183  and  _186
REMARK   72  A    between atoms: _186  and  _187
REMARK   73  A    between atoms: _190  and  _192
REMARK   74  A    between atoms: _192  and  _193
REMARK   75  A    between atoms: _192  and  _195
REMARK   76  A    between atoms: _195  and  _196
REMARK   77  A    between atoms: _196  and  _197
REMARK   78  A    between atoms: _200  and  _202
REMARK   79  A    between atoms: _202  and  _203
REMARK   80  A    between atoms: _205  and  _207
REMARK   81  A    between atoms: _207  and  _208
REMARK   82  A    between atoms: _207  and  _210
REMARK   83  A    between atoms: _210  and  _211
REMARK   84  A    between atoms: _217  and  _219
REMARK   85  A    between atoms: _219  and  _220
REMARK   86  A    between atoms: _219  and  _222
REMARK   87  A    between atoms: _222  and  _223
REMARK   88  A    between atoms: _226  and  _228
REMARK   89  A    between atoms: _228  and  _229
REMARK   90  A    between atoms: _228  and  _231
REMARK   91  A    between atoms: _231  and  _232
REMARK   92  A    between atoms: _232  and  _233
REMARK   93  A    between atoms: _233  and  _234
REMARK   94  A    between atoms: _243  and  _245
REMARK   95  A    between atoms: _245  and  _246
REMARK   96  A    between atoms: _249  and  _251
REMARK   97  A    between atoms: _251  and  _252
REMARK   98  A    between atoms: _251  and  _254
REMARK   99  A    between atoms: _254  and  _255
REMARK  100  A    between atoms: _258  and  _260
REMARK  101  A    between atoms: _260  and  _261
REMARK  102  A    between atoms: _260  and  _263
REMARK  103  A    between atoms: _263  and  _264
REMARK  104  A    between atoms: _264  and  _265
REMARK  105  A    between atoms: _265  and  _266
REMARK  106  A    between atoms: _275  and  _277
REMARK  107  A    between atoms: _277  and  _278
REMARK  108  A    between atoms: _277  and  _280
REMARK  109  A    between atoms: _280  and  _281
REMARK  110  A    between atoms: _291  and  _293
REMARK  111  A    between atoms: _293  and  _294
REMARK  112  A    between atoms: _293  and  _296
REMARK  113  A    between atoms: _296  and  _297
REMARK  114  A    between atoms: _303  and  _305
REMARK  115  A    between atoms: _305  and  _306
REMARK  116  A    between atoms: _305  and  _308
REMARK  117  A    between atoms: _308  and  _309
REMARK  118  A    between atoms: _312  and  _314
REMARK  119  A    between atoms: _314  and  _315
REMARK  120  A    between atoms: _314  and  _317
REMARK  121  A    between atoms: _320  and  _322
REMARK  122  A    between atoms: _322  and  _323
REMARK  123  A    between atoms: _322  and  _325
REMARK  124  A    between atoms: _328  and  _330
REMARK  125  A    between atoms: _330  and  _331
REMARK  126  A    between atoms: _330  and  _333
REMARK  127  A    between atoms: _333  and  _334
REMARK  128  A    between atoms: _339  and  _341
REMARK  129  A    between atoms: _341  and  _342
REMARK  130  A    between atoms: _341  and  _344
REMARK  131  A    between atoms: _344  and  _345
REMARK  132  A    between atoms: _348  and  _350
REMARK  133  A    between atoms: _350  and  _351
REMARK  134  A    between atoms: _350  and  _353
REMARK  135  A    between atoms: _353  and  _354
REMARK  136  A    between atoms: _359  and  _361
REMARK  137  A    between atoms: _361  and  _362
REMARK  138  A    between atoms: _361  and  _364
REMARK  139  A    between atoms: _364  and  _365
REMARK  140  A    between atoms: _368  and  _370
REMARK  141  A    between atoms: _370  and  _371
REMARK  142  A    between atoms: _370  and  _373
REMARK  143  A    between atoms: _373  and  _374
REMARK  144  A    between atoms: _379  and  _381
REMARK  145  A    between atoms: _381  and  _382
REMARK  146  A    between atoms: _381  and  _384
REMARK  147  A    between atoms: _384  and  _385
REMARK  148  A    between atoms: _388  and  _390
REMARK  149  A    between atoms: _390  and  _391
REMARK  150  A    between atoms: _390  and  _393
REMARK  151  A    between atoms: _393  and  _394
REMARK  152  A    between atoms: _399  and  _401
REMARK  153  A    between atoms: _401  and  _402
REMARK  154  A    between atoms: _405  and  _407
REMARK  155  A    between atoms: _407  and  _408
REMARK  156  A    between atoms: _411  and  _413
REMARK  157  A    between atoms: _413  and  _414
REMARK  158  A    between atoms: _417  and  _419
REMARK  159  A    between atoms: _419  and  _420
REMARK  160  A    between atoms: _419  and  _422
REMARK  161  A    between atoms: _422  and  _423
REMARK  162  A    between atoms: _423  and  _424
REMARK  163  A    between atoms: _424  and  _425
REMARK  164  A    between atoms: _425  and  _426
REMARK  165  A    between atoms: _430  and  _432
REMARK  166  A    between atoms: _432  and  _433
REMARK  167  A    between atoms: _436  and  _438
REMARK  168  A    between atoms: _438  and  _439
REMARK  169  A    between atoms: _441  and  _443
REMARK  170  A    between atoms: _443  and  _444
REMARK  171  A    between atoms: _443  and  _446
REMARK  172  A    between atoms: _446  and  _447
REMARK  173  A    between atoms: _450  and  _452
REMARK  174  A    between atoms: _452  and  _453
REMARK  175  A    between atoms: _452  and  _455
REMARK  176  A    between atoms: _455  and  _456
REMARK  177  A    between atoms: _456  and  _457
REMARK  178  A    between atoms: _460  and  _462
REMARK  179  A    between atoms: _462  and  _463
REMARK  180  A    between atoms: _465  and  _467
REMARK  181  A    between atoms: _467  and  _468
REMARK  182  A    between atoms: _467  and  _470
REMARK  183  A    between atoms: _470  and  _471
REMARK  184  A    between atoms: _477  and  _479
REMARK  185  A    between atoms: _479  and  _480
REMARK  186  A    between atoms: _479  and  _482
REMARK  187  A    between atoms: _482  and  _483
REMARK  188  A    between atoms: _486  and  _488
REMARK  189  A    between atoms: _488  and  _489
REMARK  190  A    between atoms: _488  and  _491
REMARK  191  A    between atoms: _491  and  _492
REMARK  192  A    between atoms: _492  and  _493
REMARK  193  A    between atoms: _493  and  _494
REMARK  194  A    between atoms: _503  and  _505
REMARK  195  A    between atoms: _505  and  _506
REMARK  196  A    between atoms: _509  and  _511
REMARK  197  A    between atoms: _511  and  _512
REMARK  198  A    between atoms: _511  and  _514
REMARK  199  A    between atoms: _514  and  _515
REMARK                            x       y       z     vdW  Elec       q    Type
REMARK                         _______ _______ _______ _____ _____    ______ ____
ROOT
ATOM      1  O   HOH     1      12.608   4.422  35.490  0.00  0.00    +0.000 OA
ENDROOT
TORSDOF 0
REMARK  Name = ../refined-set-2016/4bny/4bny_pocket.pdb
REMARK  199 active torsions:
REMARK  status: ('A' for Active; 'I' for Inactive)
REMARK    1  A    between atoms: _1  and  _3
REMARK    2  A    between atoms: _3  and  _4
REMARK    3  A    between atoms: _3  and  _6
REMARK    4  A    between atoms: _6  and  _7
REMARK    5  A    between atoms: _17  and  _19
REMARK    6  A    between atoms: _19  and  _20
REMARK    7  A    between atoms: _19  and  _22
REMARK    8  A    between atoms: _22  and  _23
REMARK    9  A    between atoms: _29  and  _31
REMARK   10  A    between atoms: _31  and  _32
REMARK   11  A    between atoms: _31  and  _34
REMARK   12  A    between atoms: _34  and  _35
REMARK   13  A    between atoms: _38  and  _40
REMARK   14  A    between atoms: _40  and  _41
REMARK   15  A    between atoms: _40  and  _43
REMARK   16  A    between atoms: _46  and  _48
REMARK   17  A    between atoms: _48  and  _49
REMARK   18  A    between atoms: _48  and  _51
REMARK   19  A    between atoms: _54  and  _56
REMARK   20  A    between atoms: _56  and  _57
REMARK   21  A    between atoms: _56  and  _59
REMARK   22  A    between atoms: _59  and  _60
REMARK   23  A    between atoms: _65  and  _67
REMARK   24  A    between atoms: _67  and  _68
REMARK   25  A    between atoms: _67  and  _70
REMARK   26  A    between atoms: _70  and  _71
REMARK   27  A    between atoms: _74  and  _76
REMARK   28  A    between atoms: _76  and  _77
REMARK   29  A    between atoms: _76  and  _79
REMARK   30  A    between atoms: _79  and  _80
REMARK   31  A    between atoms: _85  and  _87
REMARK   32  A    between atoms: _87  and  _88
REMARK   33  A    between atoms: _87  and  _90
REMARK   34  A    between atoms: _90  and  _91
REMARK   35  A    between atoms: _94  and  _96
REMARK   36  A    between atoms: _96  and  _97
REMARK   37  A    between atoms: _96  and  _99
REMARK   38  A    between atoms: _99  and  _100
REMARK   39  A    between atoms: _105  and  _107
REMARK   40  A    between atoms: _107  and  _108
REMARK   41  A    between atoms: _107  and  _110
REMARK   42  A    between atoms: _110  and  _111
REMARK   43  A    between atoms: _116  and  _117
REMARK   44  A    between atoms: _119  and  _121
REMARK   45  A    between atoms: _121  and  _122
REMARK   46  A    between atoms: _121  and  _124
REMARK   47  A    between atoms: _124  and  _125
REMARK   48  A    between atoms: _128  and  _130
REMARK   49  A    between atoms: _130  and  _131
REMARK   50  A    between atoms: _130  and  _133
REMARK   51  A    between atoms: _133  and  _134
REMARK   52  A    between atoms: _139  and  _141
REMARK   53  A    between atoms: _141  and  _142
REMARK   54  A    between atoms: _145  and  _147
REMARK   55  A    between atoms: _147  and  _148
REMARK   56  A    between atoms: _151  and  _153
REMARK   57  A    between atoms: _153  and  _154
REMARK   58  A    between atoms: _157  and  _159
REMARK   59  A    between atoms: _159  and  _160
REMARK   60  A    between atoms: _159  and  _162
REMARK   61  A    between atoms: _162  and  _163
REMARK   62  A    between atoms: _163  and  _164
REMARK   63  A    between atoms: _164  and  _165
REMARK   64  A    between atoms: _165  and  _166
REMARK   65  A    between atoms: _170  and  _172
REMARK   66  A    between atoms: _172  and  _173
REMARK   67  A    between atoms: _176  and  _178
REMARK   68  A    between atoms: _178  and  _179
REMARK   69  A    between atoms: _181  and  _183
REMARK   70  A    between atoms: _183  and  _184
REMARK   71  A    between atoms: _183  and  _186
REMARK   72  A    between atoms: _186  and  _187
REMARK   73  A    between atoms: _190  and  _192
REMARK   74  A    between atoms: _192  and  _193
REMARK   75  A    between atoms: _192  and  _195
REMARK   76  A    between atoms: _195  and  _196
REMARK   77  A    between atoms: _196  and  _197
REMARK   78  A    between atoms: _200  and  _202
REMARK   79  A    between atoms: _202  and  _203
REMARK   80  A    between atoms: _205  and  _207
REMARK   81  A    between atoms: _207  and  _208
REMARK   82  A    between atoms: _207  and  _210
REMARK   83  A    between atoms: _210  and  _211
REMARK   84  A    between atoms: _217  and  _219
REMARK   85  A    between atoms: _219  and  _220
REMARK   86  A    between atoms: _219  and  _222
REMARK   87  A    between atoms: _222  and  _223
REMARK   88  A    between atoms: _226  and  _228
REMARK   89  A    between atoms: _228  and  _229
REMARK   90  A    between atoms: _228  and  _231
REMARK   91  A    between atoms: _231  and  _232
REMARK   92  A    between atoms: _232  and  _233
REMARK   93  A    between atoms: _233  and  _234
REMARK   94  A    between atoms: _243  and  _245
REMARK   95  A    between atoms: _245  and  _246
REMARK   96  A    between atoms: _249  and  _251
REMARK   97  A    between atoms: _251  and  _252
REMARK   98  A    between atoms: _251  and  _254
REMARK   99  A    between atoms: _254  and  _255
REMARK  100  A    between atoms: _258  and  _260
REMARK  101  A    between atoms: _260  and  _261
REMARK  102  A    between atoms: _260  and  _263
REMARK  103  A    between atoms: _263  and  _264
REMARK  104  A    between atoms: _264  and  _265
REMARK  105  A    between atoms: _265  and  _266
REMARK  106  A    between atoms: _275  and  _277
REMARK  107  A    between atoms: _277  and  _278
REMARK  108  A    between atoms: _277  and  _280
REMARK  109  A    between atoms: _280  and  _281
REMARK  110  A    between atoms: _291  and  _293
REMARK  111  A    between atoms: _293  and  _294
REMARK  112  A    between atoms: _293  and  _296
REMARK  113  A    between atoms: _296  and  _297
REMARK  114  A    between atoms: _303  and  _305
REMARK  115  A    between atoms: _305  and  _306
REMARK  116  A    between atoms: _305  and  _308
REMARK  117  A    between atoms: _308  and  _309
REMARK  118  A    between atoms: _312  and  _314
REMARK  119  A    between atoms: _314  and  _315
REMARK  120  A    between atoms: _314  and  _317
REMARK  121  A    between atoms: _320  and  _322
REMARK  122  A    between atoms: _322  and  _323
REMARK  123  A    between atoms: _322  and  _325
REMARK  124  A    between atoms: _328  and  _330
REMARK  125  A    between atoms: _330  and  _331
REMARK  126  A    between atoms: _330  and  _333
REMARK  127  A    between atoms: _333  and  _334
REMARK  128  A    between atoms: _339  and  _341
REMARK  129  A    between atoms: _341  and  _342
REMARK  130  A    between atoms: _341  and  _344
REMARK  131  A    between atoms: _344  and  _345
REMARK  132  A    between atoms: _348  and  _350
REMARK  133  A    between atoms: _350  and  _351
REMARK  134  A    between atoms: _350  and  _353
REMARK  135  A    between atoms: _353  and  _354
REMARK  136  A    between atoms: _359  and  _361
REMARK  137  A    between atoms: _361  and  _362
REMARK  138  A    between atoms: _361  and  _364
REMARK  139  A    between atoms: _364  and  _365
REMARK  140  A    between atoms: _368  and  _370
REMARK  141  A    between atoms: _370  and  _371
REMARK  142  A    between atoms: _370  and  _373
REMARK  143  A    between atoms: _373  and  _374
REMARK  144  A    between atoms: _379  and  _381
REMARK  145  A    between atoms: _381  and  _382
REMARK  146  A    between atoms: _381  and  _384
REMARK  147  A    between atoms: _384  and  _385
REMARK  148  A    between atoms: _388  and  _390
REMARK  149  A    between atoms: _390  and  _391
REMARK  150  A    between atoms: _390  and  _393
REMARK  151  A    between atoms: _393  and  _394
REMARK  152  A    between atoms: _399  and  _401
REMARK  153  A    between atoms: _401  and  _402
REMARK  154  A    between atoms: _405  and  _407
REMARK  155  A    between atoms: _407  and  _408
REMARK  156  A    between atoms: _411  and  _413
REMARK  157  A    between atoms: _413  and  _414
REMARK  158  A    between atoms: _417  and  _419
REMARK  159  A    between atoms: _419  and  _420
REMARK  160  A    between atoms: _419  and  _422
REMARK  161  A    between atoms: _422  and  _423
REMARK  162  A    between atoms: _423  and  _424
REMARK  163  A    between atoms: _424  and  _425
REMARK  164  A    between atoms: _425  and  _426
REMARK  165  A    between atoms: _430  and  _432
REMARK  166  A    between atoms: _432  and  _433
REMARK  167  A    between atoms: _436  and  _438
REMARK  168  A    between atoms: _438  and  _439
REMARK  169  A    between atoms: _441  and  _443
REMARK  170  A    between atoms: _443  and  _444
REMARK  171  A    between atoms: _443  and  _446
REMARK  172  A    between atoms: _446  and  _447
REMARK  173  A    between atoms: _450  and  _452
REMARK  174  A    between atoms: _452  and  _453
REMARK  175  A    between atoms: _452  and  _455
REMARK  176  A    between atoms: _455  and  _456
REMARK  177  A    between atoms: _456  and  _457
REMARK  178  A    between atoms: _460  and  _462
REMARK  179  A    between atoms: _462  and  _463
REMARK  180  A    between atoms: _465  and  _467
REMARK  181  A    between atoms: _467  and  _468
REMARK  182  A    between atoms: _467  and  _470
REMARK  183  A    between atoms: _470  and  _471
REMARK  184  A    between atoms: _477  and  _479
REMARK  185  A    between atoms: _479  and  _480
REMARK  186  A    between atoms: _479  and  _482
REMARK  187  A    between atoms: _482  and  _483
REMARK  188  A    between atoms: _486  and  _488
REMARK  189  A    between atoms: _488  and  _489
REMARK  190  A    between atoms: _488  and  _491
REMARK  191  A    between atoms: _491  and  _492
REMARK  192  A    between atoms: _492  and  _493
REMARK  193  A    between atoms: _493  and  _494
REMARK  194  A    between atoms: _503  and  _505
REMARK  195  A    between atoms: _505  and  _506
REMARK  196  A    between atoms: _509  and  _511
REMARK  197  A    between atoms: _511  and  _512
REMARK  198  A    between atoms: _511  and  _514
REMARK  199  A    between atoms: _514  and  _515
REMARK                            x       y       z     vdW  Elec       q    Type
REMARK                         _______ _______ _______ _____ _____    ______ ____
ROOT
ATOM      1  O   HOH     1       6.739   7.268  36.579  0.00  0.00    +0.000 OA
ENDROOT
TORSDOF 0
REMARK  Name = ../refined-set-2016/4bny/4bny_pocket.pdb
REMARK  199 active torsions:
REMARK  status: ('A' for Active; 'I' for Inactive)
REMARK    1  A    between atoms: _1  and  _3
REMARK    2  A    between atoms: _3  and  _4
REMARK    3  A    between atoms: _3  and  _6
REMARK    4  A    between atoms: _6  and  _7
REMARK    5  A    between atoms: _17  and  _19
REMARK    6  A    between atoms: _19  and  _20
REMARK    7  A    between atoms: _19  and  _22
REMARK    8  A    between atoms: _22  and  _23
REMARK    9  A    between atoms: _29  and  _31
REMARK   10  A    between atoms: _31  and  _32
REMARK   11  A    between atoms: _31  and  _34
REMARK   12  A    between atoms: _34  and  _35
REMARK   13  A    between atoms: _38  and  _40
REMARK   14  A    between atoms: _40  and  _41
REMARK   15  A    between atoms: _40  and  _43
REMARK   16  A    between atoms: _46  and  _48
REMARK   17  A    between atoms: _48  and  _49
REMARK   18  A    between atoms: _48  and  _51
REMARK   19  A    between atoms: _54  and  _56
REMARK   20  A    between atoms: _56  and  _57
REMARK   21  A    between atoms: _56  and  _59
REMARK   22  A    between atoms: _59  and  _60
REMARK   23  A    between atoms: _65  and  _67
REMARK   24  A    between atoms: _67  and  _68
REMARK   25  A    between atoms: _67  and  _70
REMARK   26  A    between atoms: _70  and  _71
REMARK   27  A    between atoms: _74  and  _76
REMARK   28  A    between atoms: _76  and  _77
REMARK   29  A    between atoms: _76  and  _79
REMARK   30  A    between atoms: _79  and  _80
REMARK   31  A    between atoms: _85  and  _87
REMARK   32  A    between atoms: _87  and  _88
REMARK   33  A    between atoms: _87  and  _90
REMARK   34  A    between atoms: _90  and  _91
REMARK   35  A    between atoms: _94  and  _96
REMARK   36  A    between atoms: _96  and  _97
REMARK   37  A    between atoms: _96  and  _99
REMARK   38  A    between atoms: _99  and  _100
REMARK   39  A    between atoms: _105  and  _107
REMARK   40  A    between atoms: _107  and  _108
REMARK   41  A    between atoms: _107  and  _110
REMARK   42  A    between atoms: _110  and  _111
REMARK   43  A    between atoms: _116  and  _117
REMARK   44  A    between atoms: _119  and  _121
REMARK   45  A    between atoms: _121  and  _122
REMARK   46  A    between atoms: _121  and  _124
REMARK   47  A    between atoms: _124  and  _125
REMARK   48  A    between atoms: _128  and  _130
REMARK   49  A    between atoms: _130  and  _131
REMARK   50  A    between atoms: _130  and  _133
REMARK   51  A    between atoms: _133  and  _134
REMARK   52  A    between atoms: _139  and  _141
REMARK   53  A    between atoms: _141  and  _142
REMARK   54  A    between atoms: _145  and  _147
REMARK   55  A    between atoms: _147  and  _148
REMARK   56  A    between atoms: _151  and  _153
REMARK   57  A    between atoms: _153  and  _154
REMARK   58  A    between atoms: _157  and  _159
REMARK   59  A    between atoms: _159  and  _160
REMARK   60  A    between atoms: _159  and  _162
REMARK   61  A    between atoms: _162  and  _163
REMARK   62  A    between atoms: _163  and  _164
REMARK   63  A    between atoms: _164  and  _165
REMARK   64  A    between atoms: _165  and  _166
REMARK   65  A    between atoms: _170  and  _172
REMARK   66  A    between atoms: _172  and  _173
REMARK   67  A    between atoms: _176  and  _178
REMARK   68  A    between atoms: _178  and  _179
REMARK   69  A    between atoms: _181  and  _183
REMARK   70  A    between atoms: _183  and  _184
REMARK   71  A    between atoms: _183  and  _186
REMARK   72  A    between atoms: _186  and  _187
REMARK   73  A    between atoms: _190  and  _192
REMARK   74  A    between atoms: _192  and  _193
REMARK   75  A    between atoms: _192  and  _195
REMARK   76  A    between atoms: _195  and  _196
REMARK   77  A    between atoms: _196  and  _197
REMARK   78  A    between atoms: _200  and  _202
REMARK   79  A    between atoms: _202  and  _203
REMARK   80  A    between atoms: _205  and  _207
REMARK   81  A    between atoms: _207  and  _208
REMARK   82  A    between atoms: _207  and  _210
REMARK   83  A    between atoms: _210  and  _211
REMARK   84  A    between atoms: _217  and  _219
REMARK   85  A    between atoms: _219  and  _220
REMARK   86  A    between atoms: _219  and  _222
REMARK   87  A    between atoms: _222  and  _223
REMARK   88  A    between atoms: _226  and  _228
REMARK   89  A    between atoms: _228  and  _229
REMARK   90  A    between atoms: _228  and  _231
REMARK   91  A    between atoms: _231  and  _232
REMARK   92  A    between atoms: _232  and  _233
REMARK   93  A    between atoms: _233  and  _234
REMARK   94  A    between atoms: _243  and  _245
REMARK   95  A    between atoms: _245  and  _246
REMARK   96  A    between atoms: _249  and  _251
REMARK   97  A    between atoms: _251  and  _252
REMARK   98  A    between atoms: _251  and  _254
REMARK   99  A    between atoms: _254  and  _255
REMARK  100  A    between atoms: _258  and  _260
REMARK  101  A    between atoms: _260  and  _261
REMARK  102  A    between atoms: _260  and  _263
REMARK  103  A    between atoms: _263  and  _264
REMARK  104  A    between atoms: _264  and  _265
REMARK  105  A    between atoms: _265  and  _266
REMARK  106  A    between atoms: _275  and  _277
REMARK  107  A    between atoms: _277  and  _278
REMARK  108  A    between atoms: _277  and  _280
REMARK  109  A    between atoms: _280  and  _281
REMARK  110  A    between atoms: _291  and  _293
REMARK  111  A    between atoms: _293  and  _294
REMARK  112  A    between atoms: _293  and  _296
REMARK  113  A    between atoms: _296  and  _297
REMARK  114  A    between atoms: _303  and  _305
REMARK  115  A    between atoms: _305  and  _306
REMARK  116  A    between atoms: _305  and  _308
REMARK  117  A    between atoms: _308  and  _309
REMARK  118  A    between atoms: _312  and  _314
REMARK  119  A    between atoms: _314  and  _315
REMARK  120  A    between atoms: _314  and  _317
REMARK  121  A    between atoms: _320  and  _322
REMARK  122  A    between atoms: _322  and  _323
REMARK  123  A    between atoms: _322  and  _325
REMARK  124  A    between atoms: _328  and  _330
REMARK  125  A    between atoms: _330  and  _331
REMARK  126  A    between atoms: _330  and  _333
REMARK  127  A    between atoms: _333  and  _334
REMARK  128  A    between atoms: _339  and  _341
REMARK  129  A    between atoms: _341  and  _342
REMARK  130  A    between atoms: _341  and  _344
REMARK  131  A    between atoms: _344  and  _345
REMARK  132  A    between atoms: _348  and  _350
REMARK  133  A    between atoms: _350  and  _351
REMARK  134  A    between atoms: _350  and  _353
REMARK  135  A    between atoms: _353  and  _354
REMARK  136  A    between atoms: _359  and  _361
REMARK  137  A    between atoms: _361  and  _362
REMARK  138  A    between atoms: _361  and  _364
REMARK  139  A    between atoms: _364  and  _365
REMARK  140  A    between atoms: _368  and  _370
REMARK  141  A    between atoms: _370  and  _371
REMARK  142  A    between atoms: _370  and  _373
REMARK  143  A    between atoms: _373  and  _374
REMARK  144  A    between atoms: _379  and  _381
REMARK  145  A    between atoms: _381  and  _382
REMARK  146  A    between atoms: _381  and  _384
REMARK  147  A    between atoms: _384  and  _385
REMARK  148  A    between atoms: _388  and  _390
REMARK  149  A    between atoms: _390  and  _391
REMARK  150  A    between atoms: _390  and  _393
REMARK  151  A    between atoms: _393  and  _394
REMARK  152  A    between atoms: _399  and  _401
REMARK  153  A    between atoms: _401  and  _402
REMARK  154  A    between atoms: _405  and  _407
REMARK  155  A    between atoms: _407  and  _408
REMARK  156  A    between atoms: _411  and  _413
REMARK  157  A    between atoms: _413  and  _414
REMARK  158  A    between atoms: _417  and  _419
REMARK  159  A    between atoms: _419  and  _420
REMARK  160  A    between atoms: _419  and  _422
REMARK  161  A    between atoms: _422  and  _423
REMARK  162  A    between atoms: _423  and  _424
REMARK  163  A    between atoms: _424  and  _425
REMARK  164  A    between atoms: _425  and  _426
REMARK  165  A    between atoms: _430  and  _432
REMARK  166  A    between atoms: _432  and  _433
REMARK  167  A    between atoms: _436  and  _438
REMARK  168  A    between atoms: _438  and  _439
REMARK  169  A    between atoms: _441  and  _443
REMARK  170  A    between atoms: _443  and  _444
REMARK  171  A    between atoms: _443  and  _446
REMARK  172  A    between atoms: _446  and  _447
REMARK  173  A    between atoms: _450  and  _452
REMARK  174  A    between atoms: _452  and  _453
REMARK  175  A    between atoms: _452  and  _455
REMARK  176  A    between atoms: _455  and  _456
REMARK  177  A    between atoms: _456  and  _457
REMARK  178  A    between atoms: _460  and  _462
REMARK  179  A    between atoms: _462  and  _463
REMARK  180  A    between atoms: _465  and  _467
REMARK  181  A    between atoms: _467  and  _468
REMARK  182  A    between atoms: _467  and  _470
REMARK  183  A    between atoms: _470  and  _471
REMARK  184  A    between atoms: _477  and  _479
REMARK  185  A    between atoms: _479  and  _480
REMARK  186  A    between atoms: _479  and  _482
REMARK  187  A    between atoms: _482  and  _483
REMARK  188  A    between atoms: _486  and  _488
REMARK  189  A    between atoms: _488  and  _489
REMARK  190  A    between atoms: _488  and  _491
REMARK  191  A    between atoms: _491  and  _492
REMARK  192  A    between atoms: _492  and  _493
REMARK  193  A    between atoms: _493  and  _494
REMARK  194  A    between atoms: _503  and  _505
REMARK  195  A    between atoms: _505  and  _506
REMARK  196  A    between atoms: _509  and  _511
REMARK  197  A    between atoms: _511  and  _512
REMARK  198  A    between atoms: _511  and  _514
REMARK  199  A    between atoms: _514  and  _515
REMARK                            x       y       z     vdW  Elec       q    Type
REMARK                         _______ _______ _______ _____ _____    ______ ____
ROOT
ATOM      1  O   HOH     1       4.632   9.048  36.810  0.00  0.00    +0.000 OA
ENDROOT
TORSDOF 0
REMARK  Name = ../refined-set-2016/4bny/4bny_pocket.pdb
REMARK  199 active torsions:
REMARK  status: ('A' for Active; 'I' for Inactive)
REMARK    1  A    between atoms: _1  and  _3
REMARK    2  A    between atoms: _3  and  _4
REMARK    3  A    between atoms: _3  and  _6
REMARK    4  A    between atoms: _6  and  _7
REMARK    5  A    between atoms: _17  and  _19
REMARK    6  A    between atoms: _19  and  _20
REMARK    7  A    between atoms: _19  and  _22
REMARK    8  A    between atoms: _22  and  _23
REMARK    9  A    between atoms: _29  and  _31
REMARK   10  A    between atoms: _31  and  _32
REMARK   11  A    between atoms: _31  and  _34
REMARK   12  A    between atoms: _34  and  _35
REMARK   13  A    between atoms: _38  and  _40
REMARK   14  A    between atoms: _40  and  _41
REMARK   15  A    between atoms: _40  and  _43
REMARK   16  A    between atoms: _46  and  _48
REMARK   17  A    between atoms: _48  and  _49
REMARK   18  A    between atoms: _48  and  _51
REMARK   19  A    between atoms: _54  and  _56
REMARK   20  A    between atoms: _56  and  _57
REMARK   21  A    between atoms: _56  and  _59
REMARK   22  A    between atoms: _59  and  _60
REMARK   23  A    between atoms: _65  and  _67
REMARK   24  A    between atoms: _67  and  _68
REMARK   25  A    between atoms: _67  and  _70
REMARK   26  A    between atoms: _70  and  _71
REMARK   27  A    between atoms: _74  and  _76
REMARK   28  A    between atoms: _76  and  _77
REMARK   29  A    between atoms: _76  and  _79
REMARK   30  A    between atoms: _79  and  _80
REMARK   31  A    between atoms: _85  and  _87
REMARK   32  A    between atoms: _87  and  _88
REMARK   33  A    between atoms: _87  and  _90
REMARK   34  A    between atoms: _90  and  _91
REMARK   35  A    between atoms: _94  and  _96
REMARK   36  A    between atoms: _96  and  _97
REMARK   37  A    between atoms: _96  and  _99
REMARK   38  A    between atoms: _99  and  _100
REMARK   39  A    between atoms: _105  and  _107
REMARK   40  A    between atoms: _107  and  _108
REMARK   41  A    between atoms: _107  and  _110
REMARK   42  A    between atoms: _110  and  _111
REMARK   43  A    between atoms: _116  and  _117
REMARK   44  A    between atoms: _119  and  _121
REMARK   45  A    between atoms: _121  and  _122
REMARK   46  A    between atoms: _121  and  _124
REMARK   47  A    between atoms: _124  and  _125
REMARK   48  A    between atoms: _128  and  _130
REMARK   49  A    between atoms: _130  and  _131
REMARK   50  A    between atoms: _130  and  _133
REMARK   51  A    between atoms: _133  and  _134
REMARK   52  A    between atoms: _139  and  _141
REMARK   53  A    between atoms: _141  and  _142
REMARK   54  A    between atoms: _145  and  _147
REMARK   55  A    between atoms: _147  and  _148
REMARK   56  A    between atoms: _151  and  _153
REMARK   57  A    between atoms: _153  and  _154
REMARK   58  A    between atoms: _157  and  _159
REMARK   59  A    between atoms: _159  and  _160
REMARK   60  A    between atoms: _159  and  _162
REMARK   61  A    between atoms: _162  and  _163
REMARK   62  A    between atoms: _163  and  _164
REMARK   63  A    between atoms: _164  and  _165
REMARK   64  A    between atoms: _165  and  _166
REMARK   65  A    between atoms: _170  and  _172
REMARK   66  A    between atoms: _172  and  _173
REMARK   67  A    between atoms: _176  and  _178
REMARK   68  A    between atoms: _178  and  _179
REMARK   69  A    between atoms: _181  and  _183
REMARK   70  A    between atoms: _183  and  _184
REMARK   71  A    between atoms: _183  and  _186
REMARK   72  A    between atoms: _186  and  _187
REMARK   73  A    between atoms: _190  and  _192
REMARK   74  A    between atoms: _192  and  _193
REMARK   75  A    between atoms: _192  and  _195
REMARK   76  A    between atoms: _195  and  _196
REMARK   77  A    between atoms: _196  and  _197
REMARK   78  A    between atoms: _200  and  _202
REMARK   79  A    between atoms: _202  and  _203
REMARK   80  A    between atoms: _205  and  _207
REMARK   81  A    between atoms: _207  and  _208
REMARK   82  A    between atoms: _207  and  _210
REMARK   83  A    between atoms: _210  and  _211
REMARK   84  A    between atoms: _217  and  _219
REMARK   85  A    between atoms: _219  and  _220
REMARK   86  A    between atoms: _219  and  _222
REMARK   87  A    between atoms: _222  and  _223
REMARK   88  A    between atoms: _226  and  _228
REMARK   89  A    between atoms: _228  and  _229
REMARK   90  A    between atoms: _228  and  _231
REMARK   91  A    between atoms: _231  and  _232
REMARK   92  A    between atoms: _232  and  _233
REMARK   93  A    between atoms: _233  and  _234
REMARK   94  A    between atoms: _243  and  _245
REMARK   95  A    between atoms: _245  and  _246
REMARK   96  A    between atoms: _249  and  _251
REMARK   97  A    between atoms: _251  and  _252
REMARK   98  A    between atoms: _251  and  _254
REMARK   99  A    between atoms: _254  and  _255
REMARK  100  A    between atoms: _258  and  _260
REMARK  101  A    between atoms: _260  and  _261
REMARK  102  A    between atoms: _260  and  _263
REMARK  103  A    between atoms: _263  and  _264
REMARK  104  A    between atoms: _264  and  _265
REMARK  105  A    between atoms: _265  and  _266
REMARK  106  A    between atoms: _275  and  _277
REMARK  107  A    between atoms: _277  and  _278
REMARK  108  A    between atoms: _277  and  _280
REMARK  109  A    between atoms: _280  and  _281
REMARK  110  A    between atoms: _291  and  _293
REMARK  111  A    between atoms: _293  and  _294
REMARK  112  A    between atoms: _293  and  _296
REMARK  113  A    between atoms: _296  and  _297
REMARK  114  A    between atoms: _303  and  _305
REMARK  115  A    between atoms: _305  and  _306
REMARK  116  A    between atoms: _305  and  _308
REMARK  117  A    between atoms: _308  and  _309
REMARK  118  A    between atoms: _312  and  _314
REMARK  119  A    between atoms: _314  and  _315
REMARK  120  A    between atoms: _314  and  _317
REMARK  121  A    between atoms: _320  and  _322
REMARK  122  A    between atoms: _322  and  _323
REMARK  123  A    between atoms: _322  and  _325
REMARK  124  A    between atoms: _328  and  _330
REMARK  125  A    between atoms: _330  and  _331
REMARK  126  A    between atoms: _330  and  _333
REMARK  127  A    between atoms: _333  and  _334
REMARK  128  A    between atoms: _339  and  _341
REMARK  129  A    between atoms: _341  and  _342
REMARK  130  A    between atoms: _341  and  _344
REMARK  131  A    between atoms: _344  and  _345
REMARK  132  A    between atoms: _348  and  _350
REMARK  133  A    between atoms: _350  and  _351
REMARK  134  A    between atoms: _350  and  _353
REMARK  135  A    between atoms: _353  and  _354
REMARK  136  A    between atoms: _359  and  _361
REMARK  137  A    between atoms: _361  and  _362
REMARK  138  A    between atoms: _361  and  _364
REMARK  139  A    between atoms: _364  and  _365
REMARK  140  A    between atoms: _368  and  _370
REMARK  141  A    between atoms: _370  and  _371
REMARK  142  A    between atoms: _370  and  _373
REMARK  143  A    between atoms: _373  and  _374
REMARK  144  A    between atoms: _379  and  _381
REMARK  145  A    between atoms: _381  and  _382
REMARK  146  A    between atoms: _381  and  _384
REMARK  147  A    between atoms: _384  and  _385
REMARK  148  A    between atoms: _388  and  _390
REMARK  149  A    between atoms: _390  and  _391
REMARK  150  A    between atoms: _390  and  _393
REMARK  151  A    between atoms: _393  and  _394
REMARK  152  A    between atoms: _399  and  _401
REMARK  153  A    between atoms: _401  and  _402
REMARK  154  A    between atoms: _405  and  _407
REMARK  155  A    between atoms: _407  and  _408
REMARK  156  A    between atoms: _411  and  _413
REMARK  157  A    between atoms: _413  and  _414
REMARK  158  A    between atoms: _417  and  _419
REMARK  159  A    between atoms: _419  and  _420
REMARK  160  A    between atoms: _419  and  _422
REMARK  161  A    between atoms: _422  and  _423
REMARK  162  A    between atoms: _423  and  _424
REMARK  163  A    between atoms: _424  and  _425
REMARK  164  A    between atoms: _425  and  _426
REMARK  165  A    between atoms: _430  and  _432
REMARK  166  A    between atoms: _432  and  _433
REMARK  167  A    between atoms: _436  and  _438
REMARK  168  A    between atoms: _438  and  _439
REMARK  169  A    between atoms: _441  and  _443
REMARK  170  A    between atoms: _443  and  _444
REMARK  171  A    between atoms: _443  and  _446
REMARK  172  A    between atoms: _446  and  _447
REMARK  173  A    between atoms: _450  and  _452
REMARK  174  A    between atoms: _452  and  _453
REMARK  175  A    between atoms: _452  and  _455
REMARK  176  A    between atoms: _455  and  _456
REMARK  177  A    between atoms: _456  and  _457
REMARK  178  A    between atoms: _460  and  _462
REMARK  179  A    between atoms: _462  and  _463
REMARK  180  A    between atoms: _465  and  _467
REMARK  181  A    between atoms: _467  and  _468
REMARK  182  A    between atoms: _467  and  _470
REMARK  183  A    between atoms: _470  and  _471
REMARK  184  A    between atoms: _477  and  _479
REMARK  185  A    between atoms: _479  and  _480
REMARK  186  A    between atoms: _479  and  _482
REMARK  187  A    between atoms: _482  and  _483
REMARK  188  A    between atoms: _486  and  _488
REMARK  189  A    between atoms: _488  and  _489
REMARK  190  A    between atoms: _488  and  _491
REMARK  191  A    between atoms: _491  and  _492
REMARK  192  A    between atoms: _492  and  _493
REMARK  193  A    between atoms: _493  and  _494
REMARK  194  A    between atoms: _503  and  _505
REMARK  195  A    between atoms: _505  and  _506
REMARK  196  A    between atoms: _509  and  _511
REMARK  197  A    between atoms: _511  and  _512
REMARK  198  A    between atoms: _511  and  _514
REMARK  199  A    between atoms: _514  and  _515
REMARK                            x       y       z     vdW  Elec       q    Type
REMARK                         _______ _______ _______ _____ _____    ______ ____
ROOT
ATOM      1  O   HOH     1       9.349   9.309  32.502  0.00  0.00    +0.000 OA
ENDROOT
TORSDOF 0
REMARK  Name = ../refined-set-2016/4bny/4bny_pocket.pdb
REMARK  199 active torsions:
REMARK  status: ('A' for Active; 'I' for Inactive)
REMARK    1  A    between atoms: _1  and  _3
REMARK    2  A    between atoms: _3  and  _4
REMARK    3  A    between atoms: _3  and  _6
REMARK    4  A    between atoms: _6  and  _7
REMARK    5  A    between atoms: _17  and  _19
REMARK    6  A    between atoms: _19  and  _20
REMARK    7  A    between atoms: _19  and  _22
REMARK    8  A    between atoms: _22  and  _23
REMARK    9  A    between atoms: _29  and  _31
REMARK   10  A    between atoms: _31  and  _32
REMARK   11  A    between atoms: _31  and  _34
REMARK   12  A    between atoms: _34  and  _35
REMARK   13  A    between atoms: _38  and  _40
REMARK   14  A    between atoms: _40  and  _41
REMARK   15  A    between atoms: _40  and  _43
REMARK   16  A    between atoms: _46  and  _48
REMARK   17  A    between atoms: _48  and  _49
REMARK   18  A    between atoms: _48  and  _51
REMARK   19  A    between atoms: _54  and  _56
REMARK   20  A    between atoms: _56  and  _57
REMARK   21  A    between atoms: _56  and  _59
REMARK   22  A    between atoms: _59  and  _60
REMARK   23  A    between atoms: _65  and  _67
REMARK   24  A    between atoms: _67  and  _68
REMARK   25  A    between atoms: _67  and  _70
REMARK   26  A    between atoms: _70  and  _71
REMARK   27  A    between atoms: _74  and  _76
REMARK   28  A    between atoms: _76  and  _77
REMARK   29  A    between atoms: _76  and  _79
REMARK   30  A    between atoms: _79  and  _80
REMARK   31  A    between atoms: _85  and  _87
REMARK   32  A    between atoms: _87  and  _88
REMARK   33  A    between atoms: _87  and  _90
REMARK   34  A    between atoms: _90  and  _91
REMARK   35  A    between atoms: _94  and  _96
REMARK   36  A    between atoms: _96  and  _97
REMARK   37  A    between atoms: _96  and  _99
REMARK   38  A    between atoms: _99  and  _100
REMARK   39  A    between atoms: _105  and  _107
REMARK   40  A    between atoms: _107  and  _108
REMARK   41  A    between atoms: _107  and  _110
REMARK   42  A    between atoms: _110  and  _111
REMARK   43  A    between atoms: _116  and  _117
REMARK   44  A    between atoms: _119  and  _121
REMARK   45  A    between atoms: _121  and  _122
REMARK   46  A    between atoms: _121  and  _124
REMARK   47  A    between atoms: _124  and  _125
REMARK   48  A    between atoms: _128  and  _130
REMARK   49  A    between atoms: _130  and  _131
REMARK   50  A    between atoms: _130  and  _133
REMARK   51  A    between atoms: _133  and  _134
REMARK   52  A    between atoms: _139  and  _141
REMARK   53  A    between atoms: _141  and  _142
REMARK   54  A    between atoms: _145  and  _147
REMARK   55  A    between atoms: _147  and  _148
REMARK   56  A    between atoms: _151  and  _153
REMARK   57  A    between atoms: _153  and  _154
REMARK   58  A    between atoms: _157  and  _159
REMARK   59  A    between atoms: _159  and  _160
REMARK   60  A    between atoms: _159  and  _162
REMARK   61  A    between atoms: _162  and  _163
REMARK   62  A    between atoms: _163  and  _164
REMARK   63  A    between atoms: _164  and  _165
REMARK   64  A    between atoms: _165  and  _166
REMARK   65  A    between atoms: _170  and  _172
REMARK   66  A    between atoms: _172  and  _173
REMARK   67  A    between atoms: _176  and  _178
REMARK   68  A    between atoms: _178  and  _179
REMARK   69  A    between atoms: _181  and  _183
REMARK   70  A    between atoms: _183  and  _184
REMARK   71  A    between atoms: _183  and  _186
REMARK   72  A    between atoms: _186  and  _187
REMARK   73  A    between atoms: _190  and  _192
REMARK   74  A    between atoms: _192  and  _193
REMARK   75  A    between atoms: _192  and  _195
REMARK   76  A    between atoms: _195  and  _196
REMARK   77  A    between atoms: _196  and  _197
REMARK   78  A    between atoms: _200  and  _202
REMARK   79  A    between atoms: _202  and  _203
REMARK   80  A    between atoms: _205  and  _207
REMARK   81  A    between atoms: _207  and  _208
REMARK   82  A    between atoms: _207  and  _210
REMARK   83  A    between atoms: _210  and  _211
REMARK   84  A    between atoms: _217  and  _219
REMARK   85  A    between atoms: _219  and  _220
REMARK   86  A    between atoms: _219  and  _222
REMARK   87  A    between atoms: _222  and  _223
REMARK   88  A    between atoms: _226  and  _228
REMARK   89  A    between atoms: _228  and  _229
REMARK   90  A    between atoms: _228  and  _231
REMARK   91  A    between atoms: _231  and  _232
REMARK   92  A    between atoms: _232  and  _233
REMARK   93  A    between atoms: _233  and  _234
REMARK   94  A    between atoms: _243  and  _245
REMARK   95  A    between atoms: _245  and  _246
REMARK   96  A    between atoms: _249  and  _251
REMARK   97  A    between atoms: _251  and  _252
REMARK   98  A    between atoms: _251  and  _254
REMARK   99  A    between atoms: _254  and  _255
REMARK  100  A    between atoms: _258  and  _260
REMARK  101  A    between atoms: _260  and  _261
REMARK  102  A    between atoms: _260  and  _263
REMARK  103  A    between atoms: _263  and  _264
REMARK  104  A    between atoms: _264  and  _265
REMARK  105  A    between atoms: _265  and  _266
REMARK  106  A    between atoms: _275  and  _277
REMARK  107  A    between atoms: _277  and  _278
REMARK  108  A    between atoms: _277  and  _280
REMARK  109  A    between atoms: _280  and  _281
REMARK  110  A    between atoms: _291  and  _293
REMARK  111  A    between atoms: _293  and  _294
REMARK  112  A    between atoms: _293  and  _296
REMARK  113  A    between atoms: _296  and  _297
REMARK  114  A    between atoms: _303  and  _305
REMARK  115  A    between atoms: _305  and  _306
REMARK  116  A    between atoms: _305  and  _308
REMARK  117  A    between atoms: _308  and  _309
REMARK  118  A    between atoms: _312  and  _314
REMARK  119  A    between atoms: _314  and  _315
REMARK  120  A    between atoms: _314  and  _317
REMARK  121  A    between atoms: _320  and  _322
REMARK  122  A    between atoms: _322  and  _323
REMARK  123  A    between atoms: _322  and  _325
REMARK  124  A    between atoms: _328  and  _330
REMARK  125  A    between atoms: _330  and  _331
REMARK  126  A    between atoms: _330  and  _333
REMARK  127  A    between atoms: _333  and  _334
REMARK  128  A    between atoms: _339  and  _341
REMARK  129  A    between atoms: _341  and  _342
REMARK  130  A    between atoms: _341  and  _344
REMARK  131  A    between atoms: _344  and  _345
REMARK  132  A    between atoms: _348  and  _350
REMARK  133  A    between atoms: _350  and  _351
REMARK  134  A    between atoms: _350  and  _353
REMARK  135  A    between atoms: _353  and  _354
REMARK  136  A    between atoms: _359  and  _361
REMARK  137  A    between atoms: _361  and  _362
REMARK  138  A    between atoms: _361  and  _364
REMARK  139  A    between atoms: _364  and  _365
REMARK  140  A    between atoms: _368  and  _370
REMARK  141  A    between atoms: _370  and  _371
REMARK  142  A    between atoms: _370  and  _373
REMARK  143  A    between atoms: _373  and  _374
REMARK  144  A    between atoms: _379  and  _381
REMARK  145  A    between atoms: _381  and  _382
REMARK  146  A    between atoms: _381  and  _384
REMARK  147  A    between atoms: _384  and  _385
REMARK  148  A    between atoms: _388  and  _390
REMARK  149  A    between atoms: _390  and  _391
REMARK  150  A    between atoms: _390  and  _393
REMARK  151  A    between atoms: _393  and  _394
REMARK  152  A    between atoms: _399  and  _401
REMARK  153  A    between atoms: _401  and  _402
REMARK  154  A    between atoms: _405  and  _407
REMARK  155  A    between atoms: _407  and  _408
REMARK  156  A    between atoms: _411  and  _413
REMARK  157  A    between atoms: _413  and  _414
REMARK  158  A    between atoms: _417  and  _419
REMARK  159  A    between atoms: _419  and  _420
REMARK  160  A    between atoms: _419  and  _422
REMARK  161  A    between atoms: _422  and  _423
REMARK  162  A    between atoms: _423  and  _424
REMARK  163  A    between atoms: _424  and  _425
REMARK  164  A    between atoms: _425  and  _426
REMARK  165  A    between atoms: _430  and  _432
REMARK  166  A    between atoms: _432  and  _433
REMARK  167  A    between atoms: _436  and  _438
REMARK  168  A    between atoms: _438  and  _439
REMARK  169  A    between atoms: _441  and  _443
REMARK  170  A    between atoms: _443  and  _444
REMARK  171  A    between atoms: _443  and  _446
REMARK  172  A    between atoms: _446  and  _447
REMARK  173  A    between atoms: _450  and  _452
REMARK  174  A    between atoms: _452  and  _453
REMARK  175  A    between atoms: _452  and  _455
REMARK  176  A    between atoms: _455  and  _456
REMARK  177  A    between atoms: _456  and  _457
REMARK  178  A    between atoms: _460  and  _462
REMARK  179  A    between atoms: _462  and  _463
REMARK  180  A    between atoms: _465  and  _467
REMARK  181  A    between atoms: _467  and  _468
REMARK  182  A    between atoms: _467  and  _470
REMARK  183  A    between atoms: _470  and  _471
REMARK  184  A    between atoms: _477  and  _479
REMARK  185  A    between atoms: _479  and  _480
REMARK  186  A    between atoms: _479  and  _482
REMARK  187  A    between atoms: _482  and  _483
REMARK  188  A    between atoms: _486  and  _488
REMARK  189  A    between atoms: _488  and  _489
REMARK  190  A    between atoms: _488  and  _491
REMARK  191  A    between atoms: _491  and  _492
REMARK  192  A    between atoms: _492  and  _493
REMARK  193  A    between atoms: _493  and  _494
REMARK  194  A    between atoms: _503  and  _505
REMARK  195  A    between atoms: _505  and  _506
REMARK  196  A    between atoms: _509  and  _511
REMARK  197  A    between atoms: _511  and  _512
REMARK  198  A    between atoms: _511  and  _514
REMARK  199  A    between atoms: _514  and  _515
REMARK                            x       y       z     vdW  Elec       q    Type
REMARK                         _______ _______ _______ _____ _____    ______ ____
ROOT
ATOM      1  O   HOH     1       5.077   1.887  28.396  0.00  0.00    +0.000 OA
ENDROOT
TORSDOF 0
REMARK  Name = ../refined-set-2016/4bny/4bny_pocket.pdb
REMARK  199 active torsions:
REMARK  status: ('A' for Active; 'I' for Inactive)
REMARK    1  A    between atoms: _1  and  _3
REMARK    2  A    between atoms: _3  and  _4
REMARK    3  A    between atoms: _3  and  _6
REMARK    4  A    between atoms: _6  and  _7
REMARK    5  A    between atoms: _17  and  _19
REMARK    6  A    between atoms: _19  and  _20
REMARK    7  A    between atoms: _19  and  _22
REMARK    8  A    between atoms: _22  and  _23
REMARK    9  A    between atoms: _29  and  _31
REMARK   10  A    between atoms: _31  and  _32
REMARK   11  A    between atoms: _31  and  _34
REMARK   12  A    between atoms: _34  and  _35
REMARK   13  A    between atoms: _38  and  _40
REMARK   14  A    between atoms: _40  and  _41
REMARK   15  A    between atoms: _40  and  _43
REMARK   16  A    between atoms: _46  and  _48
REMARK   17  A    between atoms: _48  and  _49
REMARK   18  A    between atoms: _48  and  _51
REMARK   19  A    between atoms: _54  and  _56
REMARK   20  A    between atoms: _56  and  _57
REMARK   21  A    between atoms: _56  and  _59
REMARK   22  A    between atoms: _59  and  _60
REMARK   23  A    between atoms: _65  and  _67
REMARK   24  A    between atoms: _67  and  _68
REMARK   25  A    between atoms: _67  and  _70
REMARK   26  A    between atoms: _70  and  _71
REMARK   27  A    between atoms: _74  and  _76
REMARK   28  A    between atoms: _76  and  _77
REMARK   29  A    between atoms: _76  and  _79
REMARK   30  A    between atoms: _79  and  _80
REMARK   31  A    between atoms: _85  and  _87
REMARK   32  A    between atoms: _87  and  _88
REMARK   33  A    between atoms: _87  and  _90
REMARK   34  A    between atoms: _90  and  _91
REMARK   35  A    between atoms: _94  and  _96
REMARK   36  A    between atoms: _96  and  _97
REMARK   37  A    between atoms: _96  and  _99
REMARK   38  A    between atoms: _99  and  _100
REMARK   39  A    between atoms: _105  and  _107
REMARK   40  A    between atoms: _107  and  _108
REMARK   41  A    between atoms: _107  and  _110
REMARK   42  A    between atoms: _110  and  _111
REMARK   43  A    between atoms: _116  and  _117
REMARK   44  A    between atoms: _119  and  _121
REMARK   45  A    between atoms: _121  and  _122
REMARK   46  A    between atoms: _121  and  _124
REMARK   47  A    between atoms: _124  and  _125
REMARK   48  A    between atoms: _128  and  _130
REMARK   49  A    between atoms: _130  and  _131
REMARK   50  A    between atoms: _130  and  _133
REMARK   51  A    between atoms: _133  and  _134
REMARK   52  A    between atoms: _139  and  _141
REMARK   53  A    between atoms: _141  and  _142
REMARK   54  A    between atoms: _145  and  _147
REMARK   55  A    between atoms: _147  and  _148
REMARK   56  A    between atoms: _151  and  _153
REMARK   57  A    between atoms: _153  and  _154
REMARK   58  A    between atoms: _157  and  _159
REMARK   59  A    between atoms: _159  and  _160
REMARK   60  A    between atoms: _159  and  _162
REMARK   61  A    between atoms: _162  and  _163
REMARK   62  A    between atoms: _163  and  _164
REMARK   63  A    between atoms: _164  and  _165
REMARK   64  A    between atoms: _165  and  _166
REMARK   65  A    between atoms: _170  and  _172
REMARK   66  A    between atoms: _172  and  _173
REMARK   67  A    between atoms: _176  and  _178
REMARK   68  A    between atoms: _178  and  _179
REMARK   69  A    between atoms: _181  and  _183
REMARK   70  A    between atoms: _183  and  _184
REMARK   71  A    between atoms: _183  and  _186
REMARK   72  A    between atoms: _186  and  _187
REMARK   73  A    between atoms: _190  and  _192
REMARK   74  A    between atoms: _192  and  _193
REMARK   75  A    between atoms: _192  and  _195
REMARK   76  A    between atoms: _195  and  _196
REMARK   77  A    between atoms: _196  and  _197
REMARK   78  A    between atoms: _200  and  _202
REMARK   79  A    between atoms: _202  and  _203
REMARK   80  A    between atoms: _205  and  _207
REMARK   81  A    between atoms: _207  and  _208
REMARK   82  A    between atoms: _207  and  _210
REMARK   83  A    between atoms: _210  and  _211
REMARK   84  A    between atoms: _217  and  _219
REMARK   85  A    between atoms: _219  and  _220
REMARK   86  A    between atoms: _219  and  _222
REMARK   87  A    between atoms: _222  and  _223
REMARK   88  A    between atoms: _226  and  _228
REMARK   89  A    between atoms: _228  and  _229
REMARK   90  A    between atoms: _228  and  _231
REMARK   91  A    between atoms: _231  and  _232
REMARK   92  A    between atoms: _232  and  _233
REMARK   93  A    between atoms: _233  and  _234
REMARK   94  A    between atoms: _243  and  _245
REMARK   95  A    between atoms: _245  and  _246
REMARK   96  A    between atoms: _249  and  _251
REMARK   97  A    between atoms: _251  and  _252
REMARK   98  A    between atoms: _251  and  _254
REMARK   99  A    between atoms: _254  and  _255
REMARK  100  A    between atoms: _258  and  _260
REMARK  101  A    between atoms: _260  and  _261
REMARK  102  A    between atoms: _260  and  _263
REMARK  103  A    between atoms: _263  and  _264
REMARK  104  A    between atoms: _264  and  _265
REMARK  105  A    between atoms: _265  and  _266
REMARK  106  A    between atoms: _275  and  _277
REMARK  107  A    between atoms: _277  and  _278
REMARK  108  A    between atoms: _277  and  _280
REMARK  109  A    between atoms: _280  and  _281
REMARK  110  A    between atoms: _291  and  _293
REMARK  111  A    between atoms: _293  and  _294
REMARK  112  A    between atoms: _293  and  _296
REMARK  113  A    between atoms: _296  and  _297
REMARK  114  A    between atoms: _303  and  _305
REMARK  115  A    between atoms: _305  and  _306
REMARK  116  A    between atoms: _305  and  _308
REMARK  117  A    between atoms: _308  and  _309
REMARK  118  A    between atoms: _312  and  _314
REMARK  119  A    between atoms: _314  and  _315
REMARK  120  A    between atoms: _314  and  _317
REMARK  121  A    between atoms: _320  and  _322
REMARK  122  A    between atoms: _322  and  _323
REMARK  123  A    between atoms: _322  and  _325
REMARK  124  A    between atoms: _328  and  _330
REMARK  125  A    between atoms: _330  and  _331
REMARK  126  A    between atoms: _330  and  _333
REMARK  127  A    between atoms: _333  and  _334
REMARK  128  A    between atoms: _339  and  _341
REMARK  129  A    between atoms: _341  and  _342
REMARK  130  A    between atoms: _341  and  _344
REMARK  131  A    between atoms: _344  and  _345
REMARK  132  A    between atoms: _348  and  _350
REMARK  133  A    between atoms: _350  and  _351
REMARK  134  A    between atoms: _350  and  _353
REMARK  135  A    between atoms: _353  and  _354
REMARK  136  A    between atoms: _359  and  _361
REMARK  137  A    between atoms: _361  and  _362
REMARK  138  A    between atoms: _361  and  _364
REMARK  139  A    between atoms: _364  and  _365
REMARK  140  A    between atoms: _368  and  _370
REMARK  141  A    between atoms: _370  and  _371
REMARK  142  A    between atoms: _370  and  _373
REMARK  143  A    between atoms: _373  and  _374
REMARK  144  A    between atoms: _379  and  _381
REMARK  145  A    between atoms: _381  and  _382
REMARK  146  A    between atoms: _381  and  _384
REMARK  147  A    between atoms: _384  and  _385
REMARK  148  A    between atoms: _388  and  _390
REMARK  149  A    between atoms: _390  and  _391
REMARK  150  A    between atoms: _390  and  _393
REMARK  151  A    between atoms: _393  and  _394
REMARK  152  A    between atoms: _399  and  _401
REMARK  153  A    between atoms: _401  and  _402
REMARK  154  A    between atoms: _405  and  _407
REMARK  155  A    between atoms: _407  and  _408
REMARK  156  A    between atoms: _411  and  _413
REMARK  157  A    between atoms: _413  and  _414
REMARK  158  A    between atoms: _417  and  _419
REMARK  159  A    between atoms: _419  and  _420
REMARK  160  A    between atoms: _419  and  _422
REMARK  161  A    between atoms: _422  and  _423
REMARK  162  A    between atoms: _423  and  _424
REMARK  163  A    between atoms: _424  and  _425
REMARK  164  A    between atoms: _425  and  _426
REMARK  165  A    between atoms: _430  and  _432
REMARK  166  A    between atoms: _432  and  _433
REMARK  167  A    between atoms: _436  and  _438
REMARK  168  A    between atoms: _438  and  _439
REMARK  169  A    between atoms: _441  and  _443
REMARK  170  A    between atoms: _443  and  _444
REMARK  171  A    between atoms: _443  and  _446
REMARK  172  A    between atoms: _446  and  _447
REMARK  173  A    between atoms: _450  and  _452
REMARK  174  A    between atoms: _452  and  _453
REMARK  175  A    between atoms: _452  and  _455
REMARK  176  A    between atoms: _455  and  _456
REMARK  177  A    between atoms: _456  and  _457
REMARK  178  A    between atoms: _460  and  _462
REMARK  179  A    between atoms: _462  and  _463
REMARK  180  A    between atoms: _465  and  _467
REMARK  181  A    between atoms: _467  and  _468
REMARK  182  A    between atoms: _467  and  _470
REMARK  183  A    between atoms: _470  and  _471
REMARK  184  A    between atoms: _477  and  _479
REMARK  185  A    between atoms: _479  and  _480
REMARK  186  A    between atoms: _479  and  _482
REMARK  187  A    between atoms: _482  and  _483
REMARK  188  A    between atoms: _486  and  _488
REMARK  189  A    between atoms: _488  and  _489
REMARK  190  A    between atoms: _488  and  _491
REMARK  191  A    between atoms: _491  and  _492
REMARK  192  A    between atoms: _492  and  _493
REMARK  193  A    between atoms: _493  and  _494
REMARK  194  A    between atoms: _503  and  _505
REMARK  195  A    between atoms: _505  and  _506
REMARK  196  A    between atoms: _509  and  _511
REMARK  197  A    between atoms: _511  and  _512
REMARK  198  A    between atoms: _511  and  _514
REMARK  199  A    between atoms: _514  and  _515
REMARK                            x       y       z     vdW  Elec       q    Type
REMARK                         _______ _______ _______ _____ _____    ______ ____
ROOT
ATOM      1  O   HOH     1      13.224   3.972  32.882  0.00  0.00    +0.000 OA
ENDROOT
TORSDOF 0
REMARK  Name = ../refined-set-2016/4bny/4bny_pocket.pdb
REMARK  199 active torsions:
REMARK  status: ('A' for Active; 'I' for Inactive)
REMARK    1  A    between atoms: _1  and  _3
REMARK    2  A    between atoms: _3  and  _4
REMARK    3  A    between atoms: _3  and  _6
REMARK    4  A    between atoms: _6  and  _7
REMARK    5  A    between atoms: _17  and  _19
REMARK    6  A    between atoms: _19  and  _20
REMARK    7  A    between atoms: _19  and  _22
REMARK    8  A    between atoms: _22  and  _23
REMARK    9  A    between atoms: _29  and  _31
REMARK   10  A    between atoms: _31  and  _32
REMARK   11  A    between atoms: _31  and  _34
REMARK   12  A    between atoms: _34  and  _35
REMARK   13  A    between atoms: _38  and  _40
REMARK   14  A    between atoms: _40  and  _41
REMARK   15  A    between atoms: _40  and  _43
REMARK   16  A    between atoms: _46  and  _48
REMARK   17  A    between atoms: _48  and  _49
REMARK   18  A    between atoms: _48  and  _51
REMARK   19  A    between atoms: _54  and  _56
REMARK   20  A    between atoms: _56  and  _57
REMARK   21  A    between atoms: _56  and  _59
REMARK   22  A    between atoms: _59  and  _60
REMARK   23  A    between atoms: _65  and  _67
REMARK   24  A    between atoms: _67  and  _68
REMARK   25  A    between atoms: _67  and  _70
REMARK   26  A    between atoms: _70  and  _71
REMARK   27  A    between atoms: _74  and  _76
REMARK   28  A    between atoms: _76  and  _77
REMARK   29  A    between atoms: _76  and  _79
REMARK   30  A    between atoms: _79  and  _80
REMARK   31  A    between atoms: _85  and  _87
REMARK   32  A    between atoms: _87  and  _88
REMARK   33  A    between atoms: _87  and  _90
REMARK   34  A    between atoms: _90  and  _91
REMARK   35  A    between atoms: _94  and  _96
REMARK   36  A    between atoms: _96  and  _97
REMARK   37  A    between atoms: _96  and  _99
REMARK   38  A    between atoms: _99  and  _100
REMARK   39  A    between atoms: _105  and  _107
REMARK   40  A    between atoms: _107  and  _108
REMARK   41  A    between atoms: _107  and  _110
REMARK   42  A    between atoms: _110  and  _111
REMARK   43  A    between atoms: _116  and  _117
REMARK   44  A    between atoms: _119  and  _121
REMARK   45  A    between atoms: _121  and  _122
REMARK   46  A    between atoms: _121  and  _124
REMARK   47  A    between atoms: _124  and  _125
REMARK   48  A    between atoms: _128  and  _130
REMARK   49  A    between atoms: _130  and  _131
REMARK   50  A    between atoms: _130  and  _133
REMARK   51  A    between atoms: _133  and  _134
REMARK   52  A    between atoms: _139  and  _141
REMARK   53  A    between atoms: _141  and  _142
REMARK   54  A    between atoms: _145  and  _147
REMARK   55  A    between atoms: _147  and  _148
REMARK   56  A    between atoms: _151  and  _153
REMARK   57  A    between atoms: _153  and  _154
REMARK   58  A    between atoms: _157  and  _159
REMARK   59  A    between atoms: _159  and  _160
REMARK   60  A    between atoms: _159  and  _162
REMARK   61  A    between atoms: _162  and  _163
REMARK   62  A    between atoms: _163  and  _164
REMARK   63  A    between atoms: _164  and  _165
REMARK   64  A    between atoms: _165  and  _166
REMARK   65  A    between atoms: _170  and  _172
REMARK   66  A    between atoms: _172  and  _173
REMARK   67  A    between atoms: _176  and  _178
REMARK   68  A    between atoms: _178  and  _179
REMARK   69  A    between atoms: _181  and  _183
REMARK   70  A    between atoms: _183  and  _184
REMARK   71  A    between atoms: _183  and  _186
REMARK   72  A    between atoms: _186  and  _187
REMARK   73  A    between atoms: _190  and  _192
REMARK   74  A    between atoms: _192  and  _193
REMARK   75  A    between atoms: _192  and  _195
REMARK   76  A    between atoms: _195  and  _196
REMARK   77  A    between atoms: _196  and  _197
REMARK   78  A    between atoms: _200  and  _202
REMARK   79  A    between atoms: _202  and  _203
REMARK   80  A    between atoms: _205  and  _207
REMARK   81  A    between atoms: _207  and  _208
REMARK   82  A    between atoms: _207  and  _210
REMARK   83  A    between atoms: _210  and  _211
REMARK   84  A    between atoms: _217  and  _219
REMARK   85  A    between atoms: _219  and  _220
REMARK   86  A    between atoms: _219  and  _222
REMARK   87  A    between atoms: _222  and  _223
REMARK   88  A    between atoms: _226  and  _228
REMARK   89  A    between atoms: _228  and  _229
REMARK   90  A    between atoms: _228  and  _231
REMARK   91  A    between atoms: _231  and  _232
REMARK   92  A    between atoms: _232  and  _233
REMARK   93  A    between atoms: _233  and  _234
REMARK   94  A    between atoms: _243  and  _245
REMARK   95  A    between atoms: _245  and  _246
REMARK   96  A    between atoms: _249  and  _251
REMARK   97  A    between atoms: _251  and  _252
REMARK   98  A    between atoms: _251  and  _254
REMARK   99  A    between atoms: _254  and  _255
REMARK  100  A    between atoms: _258  and  _260
REMARK  101  A    between atoms: _260  and  _261
REMARK  102  A    between atoms: _260  and  _263
REMARK  103  A    between atoms: _263  and  _264
REMARK  104  A    between atoms: _264  and  _265
REMARK  105  A    between atoms: _265  and  _266
REMARK  106  A    between atoms: _275  and  _277
REMARK  107  A    between atoms: _277  and  _278
REMARK  108  A    between atoms: _277  and  _280
REMARK  109  A    between atoms: _280  and  _281
REMARK  110  A    between atoms: _291  and  _293
REMARK  111  A    between atoms: _293  and  _294
REMARK  112  A    between atoms: _293  and  _296
REMARK  113  A    between atoms: _296  and  _297
REMARK  114  A    between atoms: _303  and  _305
REMARK  115  A    between atoms: _305  and  _306
REMARK  116  A    between atoms: _305  and  _308
REMARK  117  A    between atoms: _308  and  _309
REMARK  118  A    between atoms: _312  and  _314
REMARK  119  A    between atoms: _314  and  _315
REMARK  120  A    between atoms: _314  and  _317
REMARK  121  A    between atoms: _320  and  _322
REMARK  122  A    between atoms: _322  and  _323
REMARK  123  A    between atoms: _322  and  _325
REMARK  124  A    between atoms: _328  and  _330
REMARK  125  A    between atoms: _330  and  _331
REMARK  126  A    between atoms: _330  and  _333
REMARK  127  A    between atoms: _333  and  _334
REMARK  128  A    between atoms: _339  and  _341
REMARK  129  A    between atoms: _341  and  _342
REMARK  130  A    between atoms: _341  and  _344
REMARK  131  A    between atoms: _344  and  _345
REMARK  132  A    between atoms: _348  and  _350
REMARK  133  A    between atoms: _350  and  _351
REMARK  134  A    between atoms: _350  and  _353
REMARK  135  A    between atoms: _353  and  _354
REMARK  136  A    between atoms: _359  and  _361
REMARK  137  A    between atoms: _361  and  _362
REMARK  138  A    between atoms: _361  and  _364
REMARK  139  A    between atoms: _364  and  _365
REMARK  140  A    between atoms: _368  and  _370
REMARK  141  A    between atoms: _370  and  _371
REMARK  142  A    between atoms: _370  and  _373
REMARK  143  A    between atoms: _373  and  _374
REMARK  144  A    between atoms: _379  and  _381
REMARK  145  A    between atoms: _381  and  _382
REMARK  146  A    between atoms: _381  and  _384
REMARK  147  A    between atoms: _384  and  _385
REMARK  148  A    between atoms: _388  and  _390
REMARK  149  A    between atoms: _390  and  _391
REMARK  150  A    between atoms: _390  and  _393
REMARK  151  A    between atoms: _393  and  _394
REMARK  152  A    between atoms: _399  and  _401
REMARK  153  A    between atoms: _401  and  _402
REMARK  154  A    between atoms: _405  and  _407
REMARK  155  A    between atoms: _407  and  _408
REMARK  156  A    between atoms: _411  and  _413
REMARK  157  A    between atoms: _413  and  _414
REMARK  158  A    between atoms: _417  and  _419
REMARK  159  A    between atoms: _419  and  _420
REMARK  160  A    between atoms: _419  and  _422
REMARK  161  A    between atoms: _422  and  _423
REMARK  162  A    between atoms: _423  and  _424
REMARK  163  A    between atoms: _424  and  _425
REMARK  164  A    between atoms: _425  and  _426
REMARK  165  A    between atoms: _430  and  _432
REMARK  166  A    between atoms: _432  and  _433
REMARK  167  A    between atoms: _436  and  _438
REMARK  168  A    between atoms: _438  and  _439
REMARK  169  A    between atoms: _441  and  _443
REMARK  170  A    between atoms: _443  and  _444
REMARK  171  A    between atoms: _443  and  _446
REMARK  172  A    between atoms: _446  and  _447
REMARK  173  A    between atoms: _450  and  _452
REMARK  174  A    between atoms: _452  and  _453
REMARK  175  A    between atoms: _452  and  _455
REMARK  176  A    between atoms: _455  and  _456
REMARK  177  A    between atoms: _456  and  _457
REMARK  178  A    between atoms: _460  and  _462
REMARK  179  A    between atoms: _462  and  _463
REMARK  180  A    between atoms: _465  and  _467
REMARK  181  A    between atoms: _467  and  _468
REMARK  182  A    between atoms: _467  and  _470
REMARK  183  A    between atoms: _470  and  _471
REMARK  184  A    between atoms: _477  and  _479
REMARK  185  A    between atoms: _479  and  _480
REMARK  186  A    between atoms: _479  and  _482
REMARK  187  A    between atoms: _482  and  _483
REMARK  188  A    between atoms: _486  and  _488
REMARK  189  A    between atoms: _488  and  _489
REMARK  190  A    between atoms: _488  and  _491
REMARK  191  A    between atoms: _491  and  _492
REMARK  192  A    between atoms: _492  and  _493
REMARK  193  A    between atoms: _493  and  _494
REMARK  194  A    between atoms: _503  and  _505
REMARK  195  A    between atoms: _505  and  _506
REMARK  196  A    between atoms: _509  and  _511
REMARK  197  A    between atoms: _511  and  _512
REMARK  198  A    between atoms: _511  and  _514
REMARK  199  A    between atoms: _514  and  _515
REMARK                            x       y       z     vdW  Elec       q    Type
REMARK                         _______ _______ _______ _____ _____    ______ ____
ROOT
ATOM      1  O   HOH     1      15.820   3.171  31.990  0.00  0.00    +0.000 OA
ENDROOT
TORSDOF 0
REMARK  Name = ../refined-set-2016/4bny/4bny_pocket.pdb
REMARK  199 active torsions:
REMARK  status: ('A' for Active; 'I' for Inactive)
REMARK    1  A    between atoms: _1  and  _3
REMARK    2  A    between atoms: _3  and  _4
REMARK    3  A    between atoms: _3  and  _6
REMARK    4  A    between atoms: _6  and  _7
REMARK    5  A    between atoms: _17  and  _19
REMARK    6  A    between atoms: _19  and  _20
REMARK    7  A    between atoms: _19  and  _22
REMARK    8  A    between atoms: _22  and  _23
REMARK    9  A    between atoms: _29  and  _31
REMARK   10  A    between atoms: _31  and  _32
REMARK   11  A    between atoms: _31  and  _34
REMARK   12  A    between atoms: _34  and  _35
REMARK   13  A    between atoms: _38  and  _40
REMARK   14  A    between atoms: _40  and  _41
REMARK   15  A    between atoms: _40  and  _43
REMARK   16  A    between atoms: _46  and  _48
REMARK   17  A    between atoms: _48  and  _49
REMARK   18  A    between atoms: _48  and  _51
REMARK   19  A    between atoms: _54  and  _56
REMARK   20  A    between atoms: _56  and  _57
REMARK   21  A    between atoms: _56  and  _59
REMARK   22  A    between atoms: _59  and  _60
REMARK   23  A    between atoms: _65  and  _67
REMARK   24  A    between atoms: _67  and  _68
REMARK   25  A    between atoms: _67  and  _70
REMARK   26  A    between atoms: _70  and  _71
REMARK   27  A    between atoms: _74  and  _76
REMARK   28  A    between atoms: _76  and  _77
REMARK   29  A    between atoms: _76  and  _79
REMARK   30  A    between atoms: _79  and  _80
REMARK   31  A    between atoms: _85  and  _87
REMARK   32  A    between atoms: _87  and  _88
REMARK   33  A    between atoms: _87  and  _90
REMARK   34  A    between atoms: _90  and  _91
REMARK   35  A    between atoms: _94  and  _96
REMARK   36  A    between atoms: _96  and  _97
REMARK   37  A    between atoms: _96  and  _99
REMARK   38  A    between atoms: _99  and  _100
REMARK   39  A    between atoms: _105  and  _107
REMARK   40  A    between atoms: _107  and  _108
REMARK   41  A    between atoms: _107  and  _110
REMARK   42  A    between atoms: _110  and  _111
REMARK   43  A    between atoms: _116  and  _117
REMARK   44  A    between atoms: _119  and  _121
REMARK   45  A    between atoms: _121  and  _122
REMARK   46  A    between atoms: _121  and  _124
REMARK   47  A    between atoms: _124  and  _125
REMARK   48  A    between atoms: _128  and  _130
REMARK   49  A    between atoms: _130  and  _131
REMARK   50  A    between atoms: _130  and  _133
REMARK   51  A    between atoms: _133  and  _134
REMARK   52  A    between atoms: _139  and  _141
REMARK   53  A    between atoms: _141  and  _142
REMARK   54  A    between atoms: _145  and  _147
REMARK   55  A    between atoms: _147  and  _148
REMARK   56  A    between atoms: _151  and  _153
REMARK   57  A    between atoms: _153  and  _154
REMARK   58  A    between atoms: _157  and  _159
REMARK   59  A    between atoms: _159  and  _160
REMARK   60  A    between atoms: _159  and  _162
REMARK   61  A    between atoms: _162  and  _163
REMARK   62  A    between atoms: _163  and  _164
REMARK   63  A    between atoms: _164  and  _165
REMARK   64  A    between atoms: _165  and  _166
REMARK   65  A    between atoms: _170  and  _172
REMARK   66  A    between atoms: _172  and  _173
REMARK   67  A    between atoms: _176  and  _178
REMARK   68  A    between atoms: _178  and  _179
REMARK   69  A    between atoms: _181  and  _183
REMARK   70  A    between atoms: _183  and  _184
REMARK   71  A    between atoms: _183  and  _186
REMARK   72  A    between atoms: _186  and  _187
REMARK   73  A    between atoms: _190  and  _192
REMARK   74  A    between atoms: _192  and  _193
REMARK   75  A    between atoms: _192  and  _195
REMARK   76  A    between atoms: _195  and  _196
REMARK   77  A    between atoms: _196  and  _197
REMARK   78  A    between atoms: _200  and  _202
REMARK   79  A    between atoms: _202  and  _203
REMARK   80  A    between atoms: _205  and  _207
REMARK   81  A    between atoms: _207  and  _208
REMARK   82  A    between atoms: _207  and  _210
REMARK   83  A    between atoms: _210  and  _211
REMARK   84  A    between atoms: _217  and  _219
REMARK   85  A    between atoms: _219  and  _220
REMARK   86  A    between atoms: _219  and  _222
REMARK   87  A    between atoms: _222  and  _223
REMARK   88  A    between atoms: _226  and  _228
REMARK   89  A    between atoms: _228  and  _229
REMARK   90  A    between atoms: _228  and  _231
REMARK   91  A    between atoms: _231  and  _232
REMARK   92  A    between atoms: _232  and  _233
REMARK   93  A    between atoms: _233  and  _234
REMARK   94  A    between atoms: _243  and  _245
REMARK   95  A    between atoms: _245  and  _246
REMARK   96  A    between atoms: _249  and  _251
REMARK   97  A    between atoms: _251  and  _252
REMARK   98  A    between atoms: _251  and  _254
REMARK   99  A    between atoms: _254  and  _255
REMARK  100  A    between atoms: _258  and  _260
REMARK  101  A    between atoms: _260  and  _261
REMARK  102  A    between atoms: _260  and  _263
REMARK  103  A    between atoms: _263  and  _264
REMARK  104  A    between atoms: _264  and  _265
REMARK  105  A    between atoms: _265  and  _266
REMARK  106  A    between atoms: _275  and  _277
REMARK  107  A    between atoms: _277  and  _278
REMARK  108  A    between atoms: _277  and  _280
REMARK  109  A    between atoms: _280  and  _281
REMARK  110  A    between atoms: _291  and  _293
REMARK  111  A    between atoms: _293  and  _294
REMARK  112  A    between atoms: _293  and  _296
REMARK  113  A    between atoms: _296  and  _297
REMARK  114  A    between atoms: _303  and  _305
REMARK  115  A    between atoms: _305  and  _306
REMARK  116  A    between atoms: _305  and  _308
REMARK  117  A    between atoms: _308  and  _309
REMARK  118  A    between atoms: _312  and  _314
REMARK  119  A    between atoms: _314  and  _315
REMARK  120  A    between atoms: _314  and  _317
REMARK  121  A    between atoms: _320  and  _322
REMARK  122  A    between atoms: _322  and  _323
REMARK  123  A    between atoms: _322  and  _325
REMARK  124  A    between atoms: _328  and  _330
REMARK  125  A    between atoms: _330  and  _331
REMARK  126  A    between atoms: _330  and  _333
REMARK  127  A    between atoms: _333  and  _334
REMARK  128  A    between atoms: _339  and  _341
REMARK  129  A    between atoms: _341  and  _342
REMARK  130  A    between atoms: _341  and  _344
REMARK  131  A    between atoms: _344  and  _345
REMARK  132  A    between atoms: _348  and  _350
REMARK  133  A    between atoms: _350  and  _351
REMARK  134  A    between atoms: _350  and  _353
REMARK  135  A    between atoms: _353  and  _354
REMARK  136  A    between atoms: _359  and  _361
REMARK  137  A    between atoms: _361  and  _362
REMARK  138  A    between atoms: _361  and  _364
REMARK  139  A    between atoms: _364  and  _365
REMARK  140  A    between atoms: _368  and  _370
REMARK  141  A    between atoms: _370  and  _371
REMARK  142  A    between atoms: _370  and  _373
REMARK  143  A    between atoms: _373  and  _374
REMARK  144  A    between atoms: _379  and  _381
REMARK  145  A    between atoms: _381  and  _382
REMARK  146  A    between atoms: _381  and  _384
REMARK  147  A    between atoms: _384  and  _385
REMARK  148  A    between atoms: _388  and  _390
REMARK  149  A    between atoms: _390  and  _391
REMARK  150  A    between atoms: _390  and  _393
REMARK  151  A    between atoms: _393  and  _394
REMARK  152  A    between atoms: _399  and  _401
REMARK  153  A    between atoms: _401  and  _402
REMARK  154  A    between atoms: _405  and  _407
REMARK  155  A    between atoms: _407  and  _408
REMARK  156  A    between atoms: _411  and  _413
REMARK  157  A    between atoms: _413  and  _414
REMARK  158  A    between atoms: _417  and  _419
REMARK  159  A    between atoms: _419  and  _420
REMARK  160  A    between atoms: _419  and  _422
REMARK  161  A    between atoms: _422  and  _423
REMARK  162  A    between atoms: _423  and  _424
REMARK  163  A    between atoms: _424  and  _425
REMARK  164  A    between atoms: _425  and  _426
REMARK  165  A    between atoms: _430  and  _432
REMARK  166  A    between atoms: _432  and  _433
REMARK  167  A    between atoms: _436  and  _438
REMARK  168  A    between atoms: _438  and  _439
REMARK  169  A    between atoms: _441  and  _443
REMARK  170  A    between atoms: _443  and  _444
REMARK  171  A    between atoms: _443  and  _446
REMARK  172  A    between atoms: _446  and  _447
REMARK  173  A    between atoms: _450  and  _452
REMARK  174  A    between atoms: _452  and  _453
REMARK  175  A    between atoms: _452  and  _455
REMARK  176  A    between atoms: _455  and  _456
REMARK  177  A    between atoms: _456  and  _457
REMARK  178  A    between atoms: _460  and  _462
REMARK  179  A    between atoms: _462  and  _463
REMARK  180  A    between atoms: _465  and  _467
REMARK  181  A    between atoms: _467  and  _468
REMARK  182  A    between atoms: _467  and  _470
REMARK  183  A    between atoms: _470  and  _471
REMARK  184  A    between atoms: _477  and  _479
REMARK  185  A    between atoms: _479  and  _480
REMARK  186  A    between atoms: _479  and  _482
REMARK  187  A    between atoms: _482  and  _483
REMARK  188  A    between atoms: _486  and  _488
REMARK  189  A    between atoms: _488  and  _489
REMARK  190  A    between atoms: _488  and  _491
REMARK  191  A    between atoms: _491  and  _492
REMARK  192  A    between atoms: _492  and  _493
REMARK  193  A    between atoms: _493  and  _494
REMARK  194  A    between atoms: _503  and  _505
REMARK  195  A    between atoms: _505  and  _506
REMARK  196  A    between atoms: _509  and  _511
REMARK  197  A    between atoms: _511  and  _512
REMARK  198  A    between atoms: _511  and  _514
REMARK  199  A    between atoms: _514  and  _515
REMARK                            x       y       z     vdW  Elec       q    Type
REMARK                         _______ _______ _______ _____ _____    ______ ____
ROOT
ATOM      1  O   HOH     1       9.096   8.474  36.009  0.00  0.00    +0.000 OA
ENDROOT
TORSDOF 0
