REMARK  Name = ../refined-set-2016/1d4k/1d4k_pocket.pdb
REMARK  229 active torsions:
REMARK  status: ('A' for Active; 'I' for Inactive)
REMARK    1  A    between atoms: _1  and  _3
REMARK    2  A    between atoms: _3  and  _4
REMARK    3  A    between atoms: _3  and  _6
REMARK    4  A    between atoms: _6  and  _7
REMARK    5  A    between atoms: _7  and  _8
REMARK    6  A    between atoms: _8  and  _9
REMARK    7  A    between atoms: _18  and  _20
REMARK    8  A    between atoms: _20  and  _21
REMARK    9  A    between atoms: _20  and  _23
REMARK   10  A    between atoms: _23  and  _24
REMARK   11  A    between atoms: _27  and  _29
REMARK   12  A    between atoms: _29  and  _30
REMARK   13  A    between atoms: _29  and  _32
REMARK   14  A    between atoms: _32  and  _33
REMARK   15  A    between atoms: _36  and  _38
REMARK   16  A    between atoms: _38  and  _39
REMARK   17  A    between atoms: _38  and  _41
REMARK   18  A    between atoms: _41  and  _42
REMARK   19  A    between atoms: _45  and  _47
REMARK   20  A    between atoms: _47  and  _48
REMARK   21  A    between atoms: _47  and  _50
REMARK   22  A    between atoms: _50  and  _51
REMARK   23  A    between atoms: _54  and  _56
REMARK   24  A    between atoms: _56  and  _57
REMARK   25  A    between atoms: _56  and  _59
REMARK   26  A    between atoms: _59  and  _60
REMARK   27  A    between atoms: _63  and  _65
REMARK   28  A    between atoms: _65  and  _66
REMARK   29  A    between atoms: _68  and  _70
REMARK   30  A    between atoms: _70  and  _71
REMARK   31  A    between atoms: _74  and  _76
REMARK   32  A    between atoms: _76  and  _77
REMARK   33  A    between atoms: _76  and  _79
REMARK   34  A    between atoms: _79  and  _80
REMARK   35  A    between atoms: _83  and  _85
REMARK   36  A    between atoms: _85  and  _86
REMARK   37  A    between atoms: _85  and  _88
REMARK   38  A    between atoms: _88  and  _89
REMARK   39  A    between atoms: _92  and  _94
REMARK   40  A    between atoms: _94  and  _95
REMARK   41  A    between atoms: _94  and  _97
REMARK   42  A    between atoms: _97  and  _98
REMARK   43  A    between atoms: _101  and  _103
REMARK   44  A    between atoms: _103  and  _104
REMARK   45  A    between atoms: _103  and  _106
REMARK   46  A    between atoms: _109  and  _111
REMARK   47  A    between atoms: _111  and  _112
REMARK   48  A    between atoms: _111  and  _114
REMARK   49  A    between atoms: _114  and  _115
REMARK   50  A    between atoms: _118  and  _120
REMARK   51  A    between atoms: _120  and  _121
REMARK   52  A    between atoms: _120  and  _123
REMARK   53  A    between atoms: _123  and  _124
REMARK   54  A    between atoms: _124  and  _125
REMARK   55  A    between atoms: _127  and  _129
REMARK   56  A    between atoms: _129  and  _130
REMARK   57  A    between atoms: _129  and  _132
REMARK   58  A    between atoms: _132  and  _133
REMARK   59  A    between atoms: _136  and  _138
REMARK   60  A    between atoms: _138  and  _139
REMARK   61  A    between atoms: _141  and  _143
REMARK   62  A    between atoms: _143  and  _144
REMARK   63  A    between atoms: _146  and  _148
REMARK   64  A    between atoms: _148  and  _149
REMARK   65  A    between atoms: _148  and  _151
REMARK   66  A    between atoms: _151  and  _152
REMARK   67  A    between atoms: _155  and  _157
REMARK   68  A    between atoms: _157  and  _158
REMARK   69  A    between atoms: _160  and  _162
REMARK   70  A    between atoms: _162  and  _163
REMARK   71  A    between atoms: _165  and  _167
REMARK   72  A    between atoms: _167  and  _168
REMARK   73  A    between atoms: _167  and  _170
REMARK   74  A    between atoms: _170  and  _171
REMARK   75  A    between atoms: _174  and  _176
REMARK   76  A    between atoms: _176  and  _177
REMARK   77  A    between atoms: _176  and  _179
REMARK   78  A    between atoms: _182  and  _184
REMARK   79  A    between atoms: _184  and  _185
REMARK   80  A    between atoms: _184  and  _187
REMARK   81  A    between atoms: _187  and  _188
REMARK   82  A    between atoms: _191  and  _193
REMARK   83  A    between atoms: _193  and  _194
REMARK   84  A    between atoms: _193  and  _196
REMARK   85  A    between atoms: _196  and  _197
REMARK   86  A    between atoms: _201  and  _202
REMARK   87  A    between atoms: _207  and  _209
REMARK   88  A    between atoms: _209  and  _210
REMARK   89  A    between atoms: _209  and  _212
REMARK   90  A    between atoms: _215  and  _217
REMARK   91  A    between atoms: _217  and  _218
REMARK   92  A    between atoms: _217  and  _220
REMARK   93  A    between atoms: _220  and  _221
REMARK   94  A    between atoms: _226  and  _228
REMARK   95  A    between atoms: _228  and  _229
REMARK   96  A    between atoms: _228  and  _231
REMARK   97  A    between atoms: _231  and  _232
REMARK   98  A    between atoms: _235  and  _237
REMARK   99  A    between atoms: _237  and  _238
REMARK  100  A    between atoms: _237  and  _240
REMARK  101  A    between atoms: _240  and  _241
REMARK  102  A    between atoms: _244  and  _246
REMARK  103  A    between atoms: _246  and  _247
REMARK  104  A    between atoms: _249  and  _251
REMARK  105  A    between atoms: _251  and  _252
REMARK  106  A    between atoms: _251  and  _254
REMARK  107  A    between atoms: _254  and  _255
REMARK  108  A    between atoms: _255  and  _256
REMARK  109  A    between atoms: _256  and  _257
REMARK  110  A    between atoms: _266  and  _268
REMARK  111  A    between atoms: _268  and  _269
REMARK  112  A    between atoms: _268  and  _271
REMARK  113  A    between atoms: _271  and  _272
REMARK  114  A    between atoms: _277  and  _279
REMARK  115  A    between atoms: _279  and  _280
REMARK  116  A    between atoms: _279  and  _282
REMARK  117  A    between atoms: _282  and  _283
REMARK  118  A    between atoms: _283  and  _284
REMARK  119  A    between atoms: _284  and  _285
REMARK  120  A    between atoms: _294  and  _296
REMARK  121  A    between atoms: _296  and  _297
REMARK  122  A    between atoms: _296  and  _299
REMARK  123  A    between atoms: _299  and  _300
REMARK  124  A    between atoms: _303  and  _305
REMARK  125  A    between atoms: _305  and  _306
REMARK  126  A    between atoms: _305  and  _308
REMARK  127  A    between atoms: _308  and  _309
REMARK  128  A    between atoms: _312  and  _314
REMARK  129  A    between atoms: _314  and  _315
REMARK  130  A    between atoms: _314  and  _317
REMARK  131  A    between atoms: _317  and  _318
REMARK  132  A    between atoms: _321  and  _323
REMARK  133  A    between atoms: _323  and  _324
REMARK  134  A    between atoms: _323  and  _326
REMARK  135  A    between atoms: _326  and  _327
REMARK  136  A    between atoms: _330  and  _332
REMARK  137  A    between atoms: _332  and  _333
REMARK  138  A    between atoms: _332  and  _335
REMARK  139  A    between atoms: _335  and  _336
REMARK  140  A    between atoms: _339  and  _341
REMARK  141  A    between atoms: _341  and  _342
REMARK  142  A    between atoms: _344  and  _346
REMARK  143  A    between atoms: _346  and  _347
REMARK  144  A    between atoms: _350  and  _352
REMARK  145  A    between atoms: _352  and  _353
REMARK  146  A    between atoms: _352  and  _355
REMARK  147  A    between atoms: _355  and  _356
REMARK  148  A    between atoms: _359  and  _361
REMARK  149  A    between atoms: _361  and  _362
REMARK  150  A    between atoms: _361  and  _364
REMARK  151  A    between atoms: _364  and  _365
REMARK  152  A    between atoms: _368  and  _370
REMARK  153  A    between atoms: _370  and  _371
REMARK  154  A    between atoms: _370  and  _373
REMARK  155  A    between atoms: _373  and  _374
REMARK  156  A    between atoms: _377  and  _379
REMARK  157  A    between atoms: _379  and  _380
REMARK  158  A    between atoms: _379  and  _382
REMARK  159  A    between atoms: _385  and  _387
REMARK  160  A    between atoms: _387  and  _388
REMARK  161  A    between atoms: _387  and  _390
REMARK  162  A    between atoms: _390  and  _391
REMARK  163  A    between atoms: _391  and  _392
REMARK  164  A    between atoms: _392  and  _393
REMARK  165  A    between atoms: _393  and  _394
REMARK  166  A    between atoms: _398  and  _400
REMARK  167  A    between atoms: _400  and  _401
REMARK  168  A    between atoms: _400  and  _403
REMARK  169  A    between atoms: _403  and  _404
REMARK  170  A    between atoms: _404  and  _405
REMARK  171  A    between atoms: _407  and  _409
REMARK  172  A    between atoms: _409  and  _410
REMARK  173  A    between atoms: _409  and  _412
REMARK  174  A    between atoms: _412  and  _413
REMARK  175  A    between atoms: _416  and  _418
REMARK  176  A    between atoms: _418  and  _419
REMARK  177  A    between atoms: _421  and  _423
REMARK  178  A    between atoms: _423  and  _424
REMARK  179  A    between atoms: _426  and  _428
REMARK  180  A    between atoms: _428  and  _429
REMARK  181  A    between atoms: _428  and  _431
REMARK  182  A    between atoms: _431  and  _432
REMARK  183  A    between atoms: _435  and  _437
REMARK  184  A    between atoms: _437  and  _438
REMARK  185  A    between atoms: _440  and  _442
REMARK  186  A    between atoms: _442  and  _443
REMARK  187  A    between atoms: _445  and  _447
REMARK  188  A    between atoms: _447  and  _448
REMARK  189  A    between atoms: _447  and  _450
REMARK  190  A    between atoms: _450  and  _451
REMARK  191  A    between atoms: _457  and  _459
REMARK  192  A    between atoms: _459  and  _460
REMARK  193  A    between atoms: _459  and  _462
REMARK  194  A    between atoms: _462  and  _463
REMARK  195  A    between atoms: _466  and  _468
REMARK  196  A    between atoms: _468  and  _469
REMARK  197  A    between atoms: _468  and  _471
REMARK  198  A    between atoms: _474  and  _476
REMARK  199  A    between atoms: _476  and  _477
REMARK  200  A    between atoms: _476  and  _479
REMARK  201  A    between atoms: _479  and  _480
REMARK  202  A    between atoms: _483  and  _485
REMARK  203  A    between atoms: _485  and  _486
REMARK  204  A    between atoms: _485  and  _488
REMARK  205  A    between atoms: _488  and  _489
REMARK  206  A    between atoms: _493  and  _494
REMARK  207  A    between atoms: _499  and  _501
REMARK  208  A    between atoms: _501  and  _502
REMARK  209  A    between atoms: _501  and  _504
REMARK  210  A    between atoms: _507  and  _509
REMARK  211  A    between atoms: _509  and  _510
REMARK  212  A    between atoms: _509  and  _512
REMARK  213  A    between atoms: _512  and  _513
REMARK  214  A    between atoms: _518  and  _520
REMARK  215  A    between atoms: _520  and  _521
REMARK  216  A    between atoms: _520  and  _523
REMARK  217  A    between atoms: _523  and  _524
REMARK  218  A    between atoms: _527  and  _529
REMARK  219  A    between atoms: _529  and  _530
REMARK  220  A    between atoms: _529  and  _532
REMARK  221  A    between atoms: _532  and  _533
REMARK  222  A    between atoms: _536  and  _538
REMARK  223  A    between atoms: _538  and  _539
REMARK  224  A    between atoms: _541  and  _543
REMARK  225  A    between atoms: _543  and  _544
REMARK  226  A    between atoms: _543  and  _546
REMARK  227  A    between atoms: _546  and  _547
REMARK  228  A    between atoms: _547  and  _548
REMARK  229  A    between atoms: _548  and  _549
REMARK                            x       y       z     vdW  Elec       q    Type
REMARK                         _______ _______ _______ _____ _____    ______ ____
ROOT
ATOM      1  NE  ARG A   1       3.948  -8.421  23.717  0.00  0.00    -0.265 N 
ATOM      2  HE  ARG A   1       4.492  -8.890  24.469  0.00  0.00    +0.259 HD
ATOM      3  CZ  ARG A   1       4.045  -8.910  22.487  0.00  0.00    +0.342 C 
ATOM      4  NH2 ARG A   1       4.807  -9.969  22.256  0.00  0.00    -0.292 N 
ATOM      5 HH21 ARG A   1       5.328 -10.415  23.038  0.00  0.00    +0.255 HD
ATOM      6 HH22 ARG A   1       4.884 -10.354  21.293  0.00  0.00    +0.255 HD
ATOM      7  NH1 ARG A   1       3.375  -8.347  21.491  0.00  0.00    -0.292 N 
ATOM      8 HH11 ARG A   1       2.771  -7.520  21.672  0.00  0.00    +0.255 HD
ATOM      9 HH12 ARG A   1       3.453  -8.733  20.528  0.00  0.00    +0.255 HD
ENDROOT
BRANCH   1  10
ATOM     10  CD  ARG A   1       3.126  -7.264  24.088  0.00  0.00    +0.174 C 
BRANCH  10  11
ATOM     11  CG  ARG A   1       3.772  -6.478  25.199  0.00  0.00    +0.045 C 
BRANCH  11  12
ATOM     12  CB  ARG A   1       2.771  -5.566  25.850  0.00  0.00    +0.029 C 
BRANCH  12  13
ATOM     13  CA  ARG A   1       3.372  -4.606  26.874  0.00  0.00    +0.133 C 
BRANCH  13  14
ATOM     14  N   ARG A   1       3.940  -5.335  28.019  0.00  0.00    -0.239 NA
ATOM     15  H   ARG A   1       3.813  -6.365  28.089  0.00  0.00    +0.142 HD
ENDBRANCH  13  14
BRANCH  13  16
ATOM     16  C   ARG A   1       2.281  -3.691  27.405  0.00  0.00    +0.224 C 
ATOM     17  O   ARG A   1       1.470  -4.103  28.235  0.00  0.00    -0.287 OA
ENDBRANCH  13  16
ENDBRANCH  12  13
ENDBRANCH  11  12
ENDBRANCH  10  11
ENDBRANCH   1  10
TORSDOF 6
REMARK  Name = ../refined-set-2016/1d4k/1d4k_pocket.pdb
REMARK  229 active torsions:
REMARK  status: ('A' for Active; 'I' for Inactive)
REMARK    1  A    between atoms: _1  and  _3
REMARK    2  A    between atoms: _3  and  _4
REMARK    3  A    between atoms: _3  and  _6
REMARK    4  A    between atoms: _6  and  _7
REMARK    5  A    between atoms: _7  and  _8
REMARK    6  A    between atoms: _8  and  _9
REMARK    7  A    between atoms: _18  and  _20
REMARK    8  A    between atoms: _20  and  _21
REMARK    9  A    between atoms: _20  and  _23
REMARK   10  A    between atoms: _23  and  _24
REMARK   11  A    between atoms: _27  and  _29
REMARK   12  A    between atoms: _29  and  _30
REMARK   13  A    between atoms: _29  and  _32
REMARK   14  A    between atoms: _32  and  _33
REMARK   15  A    between atoms: _36  and  _38
REMARK   16  A    between atoms: _38  and  _39
REMARK   17  A    between atoms: _38  and  _41
REMARK   18  A    between atoms: _41  and  _42
REMARK   19  A    between atoms: _45  and  _47
REMARK   20  A    between atoms: _47  and  _48
REMARK   21  A    between atoms: _47  and  _50
REMARK   22  A    between atoms: _50  and  _51
REMARK   23  A    between atoms: _54  and  _56
REMARK   24  A    between atoms: _56  and  _57
REMARK   25  A    between atoms: _56  and  _59
REMARK   26  A    between atoms: _59  and  _60
REMARK   27  A    between atoms: _63  and  _65
REMARK   28  A    between atoms: _65  and  _66
REMARK   29  A    between atoms: _68  and  _70
REMARK   30  A    between atoms: _70  and  _71
REMARK   31  A    between atoms: _74  and  _76
REMARK   32  A    between atoms: _76  and  _77
REMARK   33  A    between atoms: _76  and  _79
REMARK   34  A    between atoms: _79  and  _80
REMARK   35  A    between atoms: _83  and  _85
REMARK   36  A    between atoms: _85  and  _86
REMARK   37  A    between atoms: _85  and  _88
REMARK   38  A    between atoms: _88  and  _89
REMARK   39  A    between atoms: _92  and  _94
REMARK   40  A    between atoms: _94  and  _95
REMARK   41  A    between atoms: _94  and  _97
REMARK   42  A    between atoms: _97  and  _98
REMARK   43  A    between atoms: _101  and  _103
REMARK   44  A    between atoms: _103  and  _104
REMARK   45  A    between atoms: _103  and  _106
REMARK   46  A    between atoms: _109  and  _111
REMARK   47  A    between atoms: _111  and  _112
REMARK   48  A    between atoms: _111  and  _114
REMARK   49  A    between atoms: _114  and  _115
REMARK   50  A    between atoms: _118  and  _120
REMARK   51  A    between atoms: _120  and  _121
REMARK   52  A    between atoms: _120  and  _123
REMARK   53  A    between atoms: _123  and  _124
REMARK   54  A    between atoms: _124  and  _125
REMARK   55  A    between atoms: _127  and  _129
REMARK   56  A    between atoms: _129  and  _130
REMARK   57  A    between atoms: _129  and  _132
REMARK   58  A    between atoms: _132  and  _133
REMARK   59  A    between atoms: _136  and  _138
REMARK   60  A    between atoms: _138  and  _139
REMARK   61  A    between atoms: _141  and  _143
REMARK   62  A    between atoms: _143  and  _144
REMARK   63  A    between atoms: _146  and  _148
REMARK   64  A    between atoms: _148  and  _149
REMARK   65  A    between atoms: _148  and  _151
REMARK   66  A    between atoms: _151  and  _152
REMARK   67  A    between atoms: _155  and  _157
REMARK   68  A    between atoms: _157  and  _158
REMARK   69  A    between atoms: _160  and  _162
REMARK   70  A    between atoms: _162  and  _163
REMARK   71  A    between atoms: _165  and  _167
REMARK   72  A    between atoms: _167  and  _168
REMARK   73  A    between atoms: _167  and  _170
REMARK   74  A    between atoms: _170  and  _171
REMARK   75  A    between atoms: _174  and  _176
REMARK   76  A    between atoms: _176  and  _177
REMARK   77  A    between atoms: _176  and  _179
REMARK   78  A    between atoms: _182  and  _184
REMARK   79  A    between atoms: _184  and  _185
REMARK   80  A    between atoms: _184  and  _187
REMARK   81  A    between atoms: _187  and  _188
REMARK   82  A    between atoms: _191  and  _193
REMARK   83  A    between atoms: _193  and  _194
REMARK   84  A    between atoms: _193  and  _196
REMARK   85  A    between atoms: _196  and  _197
REMARK   86  A    between atoms: _201  and  _202
REMARK   87  A    between atoms: _207  and  _209
REMARK   88  A    between atoms: _209  and  _210
REMARK   89  A    between atoms: _209  and  _212
REMARK   90  A    between atoms: _215  and  _217
REMARK   91  A    between atoms: _217  and  _218
REMARK   92  A    between atoms: _217  and  _220
REMARK   93  A    between atoms: _220  and  _221
REMARK   94  A    between atoms: _226  and  _228
REMARK   95  A    between atoms: _228  and  _229
REMARK   96  A    between atoms: _228  and  _231
REMARK   97  A    between atoms: _231  and  _232
REMARK   98  A    between atoms: _235  and  _237
REMARK   99  A    between atoms: _237  and  _238
REMARK  100  A    between atoms: _237  and  _240
REMARK  101  A    between atoms: _240  and  _241
REMARK  102  A    between atoms: _244  and  _246
REMARK  103  A    between atoms: _246  and  _247
REMARK  104  A    between atoms: _249  and  _251
REMARK  105  A    between atoms: _251  and  _252
REMARK  106  A    between atoms: _251  and  _254
REMARK  107  A    between atoms: _254  and  _255
REMARK  108  A    between atoms: _255  and  _256
REMARK  109  A    between atoms: _256  and  _257
REMARK  110  A    between atoms: _266  and  _268
REMARK  111  A    between atoms: _268  and  _269
REMARK  112  A    between atoms: _268  and  _271
REMARK  113  A    between atoms: _271  and  _272
REMARK  114  A    between atoms: _277  and  _279
REMARK  115  A    between atoms: _279  and  _280
REMARK  116  A    between atoms: _279  and  _282
REMARK  117  A    between atoms: _282  and  _283
REMARK  118  A    between atoms: _283  and  _284
REMARK  119  A    between atoms: _284  and  _285
REMARK  120  A    between atoms: _294  and  _296
REMARK  121  A    between atoms: _296  and  _297
REMARK  122  A    between atoms: _296  and  _299
REMARK  123  A    between atoms: _299  and  _300
REMARK  124  A    between atoms: _303  and  _305
REMARK  125  A    between atoms: _305  and  _306
REMARK  126  A    between atoms: _305  and  _308
REMARK  127  A    between atoms: _308  and  _309
REMARK  128  A    between atoms: _312  and  _314
REMARK  129  A    between atoms: _314  and  _315
REMARK  130  A    between atoms: _314  and  _317
REMARK  131  A    between atoms: _317  and  _318
REMARK  132  A    between atoms: _321  and  _323
REMARK  133  A    between atoms: _323  and  _324
REMARK  134  A    between atoms: _323  and  _326
REMARK  135  A    between atoms: _326  and  _327
REMARK  136  A    between atoms: _330  and  _332
REMARK  137  A    between atoms: _332  and  _333
REMARK  138  A    between atoms: _332  and  _335
REMARK  139  A    between atoms: _335  and  _336
REMARK  140  A    between atoms: _339  and  _341
REMARK  141  A    between atoms: _341  and  _342
REMARK  142  A    between atoms: _344  and  _346
REMARK  143  A    between atoms: _346  and  _347
REMARK  144  A    between atoms: _350  and  _352
REMARK  145  A    between atoms: _352  and  _353
REMARK  146  A    between atoms: _352  and  _355
REMARK  147  A    between atoms: _355  and  _356
REMARK  148  A    between atoms: _359  and  _361
REMARK  149  A    between atoms: _361  and  _362
REMARK  150  A    between atoms: _361  and  _364
REMARK  151  A    between atoms: _364  and  _365
REMARK  152  A    between atoms: _368  and  _370
REMARK  153  A    between atoms: _370  and  _371
REMARK  154  A    between atoms: _370  and  _373
REMARK  155  A    between atoms: _373  and  _374
REMARK  156  A    between atoms: _377  and  _379
REMARK  157  A    between atoms: _379  and  _380
REMARK  158  A    between atoms: _379  and  _382
REMARK  159  A    between atoms: _385  and  _387
REMARK  160  A    between atoms: _387  and  _388
REMARK  161  A    between atoms: _387  and  _390
REMARK  162  A    between atoms: _390  and  _391
REMARK  163  A    between atoms: _391  and  _392
REMARK  164  A    between atoms: _392  and  _393
REMARK  165  A    between atoms: _393  and  _394
REMARK  166  A    between atoms: _398  and  _400
REMARK  167  A    between atoms: _400  and  _401
REMARK  168  A    between atoms: _400  and  _403
REMARK  169  A    between atoms: _403  and  _404
REMARK  170  A    between atoms: _404  and  _405
REMARK  171  A    between atoms: _407  and  _409
REMARK  172  A    between atoms: _409  and  _410
REMARK  173  A    between atoms: _409  and  _412
REMARK  174  A    between atoms: _412  and  _413
REMARK  175  A    between atoms: _416  and  _418
REMARK  176  A    between atoms: _418  and  _419
REMARK  177  A    between atoms: _421  and  _423
REMARK  178  A    between atoms: _423  and  _424
REMARK  179  A    between atoms: _426  and  _428
REMARK  180  A    between atoms: _428  and  _429
REMARK  181  A    between atoms: _428  and  _431
REMARK  182  A    between atoms: _431  and  _432
REMARK  183  A    between atoms: _435  and  _437
REMARK  184  A    between atoms: _437  and  _438
REMARK  185  A    between atoms: _440  and  _442
REMARK  186  A    between atoms: _442  and  _443
REMARK  187  A    between atoms: _445  and  _447
REMARK  188  A    between atoms: _447  and  _448
REMARK  189  A    between atoms: _447  and  _450
REMARK  190  A    between atoms: _450  and  _451
REMARK  191  A    between atoms: _457  and  _459
REMARK  192  A    between atoms: _459  and  _460
REMARK  193  A    between atoms: _459  and  _462
REMARK  194  A    between atoms: _462  and  _463
REMARK  195  A    between atoms: _466  and  _468
REMARK  196  A    between atoms: _468  and  _469
REMARK  197  A    between atoms: _468  and  _471
REMARK  198  A    between atoms: _474  and  _476
REMARK  199  A    between atoms: _476  and  _477
REMARK  200  A    between atoms: _476  and  _479
REMARK  201  A    between atoms: _479  and  _480
REMARK  202  A    between atoms: _483  and  _485
REMARK  203  A    between atoms: _485  and  _486
REMARK  204  A    between atoms: _485  and  _488
REMARK  205  A    between atoms: _488  and  _489
REMARK  206  A    between atoms: _493  and  _494
REMARK  207  A    between atoms: _499  and  _501
REMARK  208  A    between atoms: _501  and  _502
REMARK  209  A    between atoms: _501  and  _504
REMARK  210  A    between atoms: _507  and  _509
REMARK  211  A    between atoms: _509  and  _510
REMARK  212  A    between atoms: _509  and  _512
REMARK  213  A    between atoms: _512  and  _513
REMARK  214  A    between atoms: _518  and  _520
REMARK  215  A    between atoms: _520  and  _521
REMARK  216  A    between atoms: _520  and  _523
REMARK  217  A    between atoms: _523  and  _524
REMARK  218  A    between atoms: _527  and  _529
REMARK  219  A    between atoms: _529  and  _530
REMARK  220  A    between atoms: _529  and  _532
REMARK  221  A    between atoms: _532  and  _533
REMARK  222  A    between atoms: _536  and  _538
REMARK  223  A    between atoms: _538  and  _539
REMARK  224  A    between atoms: _541  and  _543
REMARK  225  A    between atoms: _543  and  _544
REMARK  226  A    between atoms: _543  and  _546
REMARK  227  A    between atoms: _546  and  _547
REMARK  228  A    between atoms: _547  and  _548
REMARK  229  A    between atoms: _548  and  _549
REMARK                            x       y       z     vdW  Elec       q    Type
REMARK                         _______ _______ _______ _____ _____    ______ ____
ROOT
ATOM      1  CA  LEU A   1      -2.011  -3.335  26.775  0.00  0.00    +0.133 C 
ENDROOT
BRANCH   1   2
ATOM      2  N   LEU A   1      -0.679  -2.914  27.232  0.00  0.00    -0.239 NA
ATOM      3  H   LEU A   1      -0.149  -3.539  27.873  0.00  0.00    +0.142 HD
ENDBRANCH   1   2
BRANCH   1   4
ATOM      4  C   LEU A   1      -3.091  -2.822  27.716  0.00  0.00    +0.224 C 
ATOM      5  O   LEU A   1      -3.030  -3.045  28.926  0.00  0.00    -0.287 OA
ENDBRANCH   1   4
BRANCH   1   6
ATOM      6  CB  LEU A   1      -2.096  -4.861  26.703  0.00  0.00    +0.025 C 
BRANCH   6   7
ATOM      7  CG  LEU A   1      -1.354  -5.590  25.582  0.00  0.00    +0.002 C 
ATOM      8  CD2 LEU A   1      -1.353  -7.083  25.863  0.00  0.00    +0.000 C 
ATOM      9  CD1 LEU A   1      -2.008  -5.299  24.241  0.00  0.00    +0.000 C 
ENDBRANCH   6   7
ENDBRANCH   1   6
TORSDOF 4
REMARK  Name = ../refined-set-2016/1d4k/1d4k_pocket.pdb
REMARK  229 active torsions:
REMARK  status: ('A' for Active; 'I' for Inactive)
REMARK    1  A    between atoms: _1  and  _3
REMARK    2  A    between atoms: _3  and  _4
REMARK    3  A    between atoms: _3  and  _6
REMARK    4  A    between atoms: _6  and  _7
REMARK    5  A    between atoms: _7  and  _8
REMARK    6  A    between atoms: _8  and  _9
REMARK    7  A    between atoms: _18  and  _20
REMARK    8  A    between atoms: _20  and  _21
REMARK    9  A    between atoms: _20  and  _23
REMARK   10  A    between atoms: _23  and  _24
REMARK   11  A    between atoms: _27  and  _29
REMARK   12  A    between atoms: _29  and  _30
REMARK   13  A    between atoms: _29  and  _32
REMARK   14  A    between atoms: _32  and  _33
REMARK   15  A    between atoms: _36  and  _38
REMARK   16  A    between atoms: _38  and  _39
REMARK   17  A    between atoms: _38  and  _41
REMARK   18  A    between atoms: _41  and  _42
REMARK   19  A    between atoms: _45  and  _47
REMARK   20  A    between atoms: _47  and  _48
REMARK   21  A    between atoms: _47  and  _50
REMARK   22  A    between atoms: _50  and  _51
REMARK   23  A    between atoms: _54  and  _56
REMARK   24  A    between atoms: _56  and  _57
REMARK   25  A    between atoms: _56  and  _59
REMARK   26  A    between atoms: _59  and  _60
REMARK   27  A    between atoms: _63  and  _65
REMARK   28  A    between atoms: _65  and  _66
REMARK   29  A    between atoms: _68  and  _70
REMARK   30  A    between atoms: _70  and  _71
REMARK   31  A    between atoms: _74  and  _76
REMARK   32  A    between atoms: _76  and  _77
REMARK   33  A    between atoms: _76  and  _79
REMARK   34  A    between atoms: _79  and  _80
REMARK   35  A    between atoms: _83  and  _85
REMARK   36  A    between atoms: _85  and  _86
REMARK   37  A    between atoms: _85  and  _88
REMARK   38  A    between atoms: _88  and  _89
REMARK   39  A    between atoms: _92  and  _94
REMARK   40  A    between atoms: _94  and  _95
REMARK   41  A    between atoms: _94  and  _97
REMARK   42  A    between atoms: _97  and  _98
REMARK   43  A    between atoms: _101  and  _103
REMARK   44  A    between atoms: _103  and  _104
REMARK   45  A    between atoms: _103  and  _106
REMARK   46  A    between atoms: _109  and  _111
REMARK   47  A    between atoms: _111  and  _112
REMARK   48  A    between atoms: _111  and  _114
REMARK   49  A    between atoms: _114  and  _115
REMARK   50  A    between atoms: _118  and  _120
REMARK   51  A    between atoms: _120  and  _121
REMARK   52  A    between atoms: _120  and  _123
REMARK   53  A    between atoms: _123  and  _124
REMARK   54  A    between atoms: _124  and  _125
REMARK   55  A    between atoms: _127  and  _129
REMARK   56  A    between atoms: _129  and  _130
REMARK   57  A    between atoms: _129  and  _132
REMARK   58  A    between atoms: _132  and  _133
REMARK   59  A    between atoms: _136  and  _138
REMARK   60  A    between atoms: _138  and  _139
REMARK   61  A    between atoms: _141  and  _143
REMARK   62  A    between atoms: _143  and  _144
REMARK   63  A    between atoms: _146  and  _148
REMARK   64  A    between atoms: _148  and  _149
REMARK   65  A    between atoms: _148  and  _151
REMARK   66  A    between atoms: _151  and  _152
REMARK   67  A    between atoms: _155  and  _157
REMARK   68  A    between atoms: _157  and  _158
REMARK   69  A    between atoms: _160  and  _162
REMARK   70  A    between atoms: _162  and  _163
REMARK   71  A    between atoms: _165  and  _167
REMARK   72  A    between atoms: _167  and  _168
REMARK   73  A    between atoms: _167  and  _170
REMARK   74  A    between atoms: _170  and  _171
REMARK   75  A    between atoms: _174  and  _176
REMARK   76  A    between atoms: _176  and  _177
REMARK   77  A    between atoms: _176  and  _179
REMARK   78  A    between atoms: _182  and  _184
REMARK   79  A    between atoms: _184  and  _185
REMARK   80  A    between atoms: _184  and  _187
REMARK   81  A    between atoms: _187  and  _188
REMARK   82  A    between atoms: _191  and  _193
REMARK   83  A    between atoms: _193  and  _194
REMARK   84  A    between atoms: _193  and  _196
REMARK   85  A    between atoms: _196  and  _197
REMARK   86  A    between atoms: _201  and  _202
REMARK   87  A    between atoms: _207  and  _209
REMARK   88  A    between atoms: _209  and  _210
REMARK   89  A    between atoms: _209  and  _212
REMARK   90  A    between atoms: _215  and  _217
REMARK   91  A    between atoms: _217  and  _218
REMARK   92  A    between atoms: _217  and  _220
REMARK   93  A    between atoms: _220  and  _221
REMARK   94  A    between atoms: _226  and  _228
REMARK   95  A    between atoms: _228  and  _229
REMARK   96  A    between atoms: _228  and  _231
REMARK   97  A    between atoms: _231  and  _232
REMARK   98  A    between atoms: _235  and  _237
REMARK   99  A    between atoms: _237  and  _238
REMARK  100  A    between atoms: _237  and  _240
REMARK  101  A    between atoms: _240  and  _241
REMARK  102  A    between atoms: _244  and  _246
REMARK  103  A    between atoms: _246  and  _247
REMARK  104  A    between atoms: _249  and  _251
REMARK  105  A    between atoms: _251  and  _252
REMARK  106  A    between atoms: _251  and  _254
REMARK  107  A    between atoms: _254  and  _255
REMARK  108  A    between atoms: _255  and  _256
REMARK  109  A    between atoms: _256  and  _257
REMARK  110  A    between atoms: _266  and  _268
REMARK  111  A    between atoms: _268  and  _269
REMARK  112  A    between atoms: _268  and  _271
REMARK  113  A    between atoms: _271  and  _272
REMARK  114  A    between atoms: _277  and  _279
REMARK  115  A    between atoms: _279  and  _280
REMARK  116  A    between atoms: _279  and  _282
REMARK  117  A    between atoms: _282  and  _283
REMARK  118  A    between atoms: _283  and  _284
REMARK  119  A    between atoms: _284  and  _285
REMARK  120  A    between atoms: _294  and  _296
REMARK  121  A    between atoms: _296  and  _297
REMARK  122  A    between atoms: _296  and  _299
REMARK  123  A    between atoms: _299  and  _300
REMARK  124  A    between atoms: _303  and  _305
REMARK  125  A    between atoms: _305  and  _306
REMARK  126  A    between atoms: _305  and  _308
REMARK  127  A    between atoms: _308  and  _309
REMARK  128  A    between atoms: _312  and  _314
REMARK  129  A    between atoms: _314  and  _315
REMARK  130  A    between atoms: _314  and  _317
REMARK  131  A    between atoms: _317  and  _318
REMARK  132  A    between atoms: _321  and  _323
REMARK  133  A    between atoms: _323  and  _324
REMARK  134  A    between atoms: _323  and  _326
REMARK  135  A    between atoms: _326  and  _327
REMARK  136  A    between atoms: _330  and  _332
REMARK  137  A    between atoms: _332  and  _333
REMARK  138  A    between atoms: _332  and  _335
REMARK  139  A    between atoms: _335  and  _336
REMARK  140  A    between atoms: _339  and  _341
REMARK  141  A    between atoms: _341  and  _342
REMARK  142  A    between atoms: _344  and  _346
REMARK  143  A    between atoms: _346  and  _347
REMARK  144  A    between atoms: _350  and  _352
REMARK  145  A    between atoms: _352  and  _353
REMARK  146  A    between atoms: _352  and  _355
REMARK  147  A    between atoms: _355  and  _356
REMARK  148  A    between atoms: _359  and  _361
REMARK  149  A    between atoms: _361  and  _362
REMARK  150  A    between atoms: _361  and  _364
REMARK  151  A    between atoms: _364  and  _365
REMARK  152  A    between atoms: _368  and  _370
REMARK  153  A    between atoms: _370  and  _371
REMARK  154  A    between atoms: _370  and  _373
REMARK  155  A    between atoms: _373  and  _374
REMARK  156  A    between atoms: _377  and  _379
REMARK  157  A    between atoms: _379  and  _380
REMARK  158  A    between atoms: _379  and  _382
REMARK  159  A    between atoms: _385  and  _387
REMARK  160  A    between atoms: _387  and  _388
REMARK  161  A    between atoms: _387  and  _390
REMARK  162  A    between atoms: _390  and  _391
REMARK  163  A    between atoms: _391  and  _392
REMARK  164  A    between atoms: _392  and  _393
REMARK  165  A    between atoms: _393  and  _394
REMARK  166  A    between atoms: _398  and  _400
REMARK  167  A    between atoms: _400  and  _401
REMARK  168  A    between atoms: _400  and  _403
REMARK  169  A    between atoms: _403  and  _404
REMARK  170  A    between atoms: _404  and  _405
REMARK  171  A    between atoms: _407  and  _409
REMARK  172  A    between atoms: _409  and  _410
REMARK  173  A    between atoms: _409  and  _412
REMARK  174  A    between atoms: _412  and  _413
REMARK  175  A    between atoms: _416  and  _418
REMARK  176  A    between atoms: _418  and  _419
REMARK  177  A    between atoms: _421  and  _423
REMARK  178  A    between atoms: _423  and  _424
REMARK  179  A    between atoms: _426  and  _428
REMARK  180  A    between atoms: _428  and  _429
REMARK  181  A    between atoms: _428  and  _431
REMARK  182  A    between atoms: _431  and  _432
REMARK  183  A    between atoms: _435  and  _437
REMARK  184  A    between atoms: _437  and  _438
REMARK  185  A    between atoms: _440  and  _442
REMARK  186  A    between atoms: _442  and  _443
REMARK  187  A    between atoms: _445  and  _447
REMARK  188  A    between atoms: _447  and  _448
REMARK  189  A    between atoms: _447  and  _450
REMARK  190  A    between atoms: _450  and  _451
REMARK  191  A    between atoms: _457  and  _459
REMARK  192  A    between atoms: _459  and  _460
REMARK  193  A    between atoms: _459  and  _462
REMARK  194  A    between atoms: _462  and  _463
REMARK  195  A    between atoms: _466  and  _468
REMARK  196  A    between atoms: _468  and  _469
REMARK  197  A    between atoms: _468  and  _471
REMARK  198  A    between atoms: _474  and  _476
REMARK  199  A    between atoms: _476  and  _477
REMARK  200  A    between atoms: _476  and  _479
REMARK  201  A    between atoms: _479  and  _480
REMARK  202  A    between atoms: _483  and  _485
REMARK  203  A    between atoms: _485  and  _486
REMARK  204  A    between atoms: _485  and  _488
REMARK  205  A    between atoms: _488  and  _489
REMARK  206  A    between atoms: _493  and  _494
REMARK  207  A    between atoms: _499  and  _501
REMARK  208  A    between atoms: _501  and  _502
REMARK  209  A    between atoms: _501  and  _504
REMARK  210  A    between atoms: _507  and  _509
REMARK  211  A    between atoms: _509  and  _510
REMARK  212  A    between atoms: _509  and  _512
REMARK  213  A    between atoms: _512  and  _513
REMARK  214  A    between atoms: _518  and  _520
REMARK  215  A    between atoms: _520  and  _521
REMARK  216  A    between atoms: _520  and  _523
REMARK  217  A    between atoms: _523  and  _524
REMARK  218  A    between atoms: _527  and  _529
REMARK  219  A    between atoms: _529  and  _530
REMARK  220  A    between atoms: _529  and  _532
REMARK  221  A    between atoms: _532  and  _533
REMARK  222  A    between atoms: _536  and  _538
REMARK  223  A    between atoms: _538  and  _539
REMARK  224  A    between atoms: _541  and  _543
REMARK  225  A    between atoms: _543  and  _544
REMARK  226  A    between atoms: _543  and  _546
REMARK  227  A    between atoms: _546  and  _547
REMARK  228  A    between atoms: _547  and  _548
REMARK  229  A    between atoms: _548  and  _549
REMARK                            x       y       z     vdW  Elec       q    Type
REMARK                         _______ _______ _______ _____ _____    ______ ____
ROOT
ATOM      1  C   ALA A   6       1.652   5.189  14.854  0.00  0.00    +0.241 C 
ATOM      2  O   ALA A   6       1.148   5.817  15.790  0.00  0.00    -0.273 OA
ATOM      3  N   ASP A   7       1.670   5.643  13.603  0.00  0.00    -0.297 N 
ATOM      4  H   ASP A   7       2.136   5.079  12.864  0.00  0.00    +0.150 HD
ENDROOT
BRANCH   1   5
ATOM      5  CA  ALA A   6       2.318   3.841  15.098  0.00  0.00    +0.149 C 
ATOM      6  CB  ALA A   6       1.283   2.819  15.524  0.00  0.00    +0.031 C 
BRANCH   5   8
ATOM      7  C   GLY A   5       4.635   4.032  15.856  0.00  0.00    +0.243 C 
ATOM      8  N   ALA A   6       3.337   3.987  16.139  0.00  0.00    -0.297 N 
ATOM      9  H   ALA A   6       3.036   4.058  17.132  0.00  0.00    +0.150 HD
ATOM     10  O   GLY A   5       5.077   3.919  14.711  0.00  0.00    -0.273 OA
BRANCH   7  11
ATOM     11  CA  GLY A   5       5.575   4.193  17.038  0.00  0.00    +0.176 C 
BRANCH  11  13
ATOM     12  C   THR A   4       4.555   5.475  18.829  0.00  0.00    +0.243 C 
ATOM     13  N   GLY A   5       4.893   4.294  18.319  0.00  0.00    -0.295 N 
ATOM     14  H   GLY A   5       4.665   3.427  18.846  0.00  0.00    +0.150 HD
ATOM     15  O   THR A   4       4.783   6.542  18.260  0.00  0.00    -0.273 OA
BRANCH  12  16
ATOM     16  CA  THR A   4       3.835   5.454  20.179  0.00  0.00    +0.176 C 
BRANCH  16  18
ATOM     17  C   ASP A   3       2.219   3.637  19.961  0.00  0.00    +0.241 C 
ATOM     18  N   THR A   4       3.326   4.116  20.520  0.00  0.00    -0.295 N 
ATOM     19  H   THR A   4       3.842   3.534  21.211  0.00  0.00    +0.150 HD
ATOM     20  O   ASP A   3       1.581   4.259  19.116  0.00  0.00    -0.273 OA
BRANCH  17  21
ATOM     21  CA  ASP A   3       1.788   2.234  20.381  0.00  0.00    +0.160 C 
BRANCH  21  24
ATOM     22  C   LEU A   2       0.686   1.908  22.549  0.00  0.00    +0.241 C 
ATOM     23  O   LEU A   2       1.742   1.673  23.133  0.00  0.00    -0.273 OA
ATOM     24  N   ASP A   3       0.614   2.204  21.257  0.00  0.00    -0.297 N 
ATOM     25  H   ASP A   3      -0.317   2.424  20.849  0.00  0.00    +0.150 HD
BRANCH  22  26
ATOM     26  CA  LEU A   2      -0.656   1.833  23.267  0.00  0.00    +0.149 C 
BRANCH  26  28
ATOM     27  C   LEU A   1      -1.358  -0.318  22.341  0.00  0.00    +0.238 C 
ATOM     28  N   LEU A   2      -0.910   0.385  23.379  0.00  0.00    -0.297 N 
ATOM     29  H   LEU A   2      -0.736  -0.096  24.285  0.00  0.00    +0.150 HD
ATOM     30  O   LEU A   1      -1.665   0.200  21.268  0.00  0.00    -0.274 OA
BRANCH  27  31
ATOM     31  CA  LEU A   1      -1.537  -1.821  22.548  0.00  0.00    +0.145 C 
BRANCH  31  32
ATOM     32  N   LEU A   1      -2.897  -2.236  22.194  0.00  0.00    -0.238 NA
ATOM     33  H   LEU A   1      -3.098  -2.491  21.206  0.00  0.00    +0.142 HD
ENDBRANCH  31  32
BRANCH  31  34
ATOM     34  CB  LEU A   1      -0.543  -2.580  21.664  0.00  0.00    +0.026 C 
BRANCH  34  35
ATOM     35  CG  LEU A   1       0.966  -2.429  21.868  0.00  0.00    +0.002 C 
ATOM     36  CD2 LEU A   1       1.388  -3.144  23.142  0.00  0.00    +0.000 C 
ATOM     37  CD1 LEU A   1       1.698  -3.028  20.671  0.00  0.00    +0.000 C 
ENDBRANCH  34  35
ENDBRANCH  31  34
ENDBRANCH  27  31
ENDBRANCH  26  28
BRANCH  26  38
ATOM     38  CB  LEU A   2      -0.589   2.487  24.647  0.00  0.00    +0.029 C 
BRANCH  38  39
ATOM     39  CG  LEU A   2      -1.877   2.377  25.468  0.00  0.00    +0.002 C 
ATOM     40  CD2 LEU A   2      -1.716   3.147  26.765  0.00  0.00    +0.000 C 
ATOM     41  CD1 LEU A   2      -3.058   2.922  24.674  0.00  0.00    +0.000 C 
ENDBRANCH  38  39
ENDBRANCH  26  38
ENDBRANCH  22  26
ENDBRANCH  21  24
BRANCH  21  42
ATOM     42  CB  ASP A   3       1.444   1.401  19.143  0.00  0.00    +0.143 C 
BRANCH  42  43
ATOM     43  CG  ASP A   3       2.656   0.914  18.399  0.00  0.00    +0.367 C 
ATOM     44  OD2 ASP A   3       3.731   1.540  18.494  0.00  0.00    -0.246 OA
ATOM     45  OD1 ASP A   3       2.518  -0.109  17.704  0.00  0.00    -0.246 OA
ENDBRANCH  42  43
ENDBRANCH  21  42
ENDBRANCH  17  21
ENDBRANCH  16  18
BRANCH  16  46
ATOM     46  CB  THR A   4       4.776   6.004  21.270  0.00  0.00    +0.137 C 
ATOM     47  CG2 THR A   4       4.046   6.116  22.597  0.00  0.00    +0.034 C 
BRANCH  46  48
ATOM     48  OG1 THR A   4       5.906   5.135  21.416  0.00  0.00    -0.382 OA
ATOM     49  HG1 THR A   4       6.394   5.083  20.556  0.00  0.00    +0.210 HD
ENDBRANCH  46  48
ENDBRANCH  16  46
ENDBRANCH  12  16
ENDBRANCH  11  13
ENDBRANCH   7  11
ENDBRANCH   5   8
ENDBRANCH   1   5
BRANCH   3  50
ATOM     50  CA  ASP A   7       1.044   6.926  13.244  0.00  0.00    +0.160 C 
BRANCH  50  51
ATOM     51  C   ASP A   7      -0.466   6.834  13.414  0.00  0.00    +0.241 C 
ATOM     52  O   ASP A   7      -1.108   7.774  13.882  0.00  0.00    -0.273 OA
ATOM     53  N   ASP A   8      -1.019   5.687  13.031  0.00  0.00    -0.297 N 
ATOM     54  H   ASP A   8      -0.407   4.926  12.675  0.00  0.00    +0.150 HD
BRANCH  53  55
ATOM     55  CA  ASP A   8      -2.467   5.464  13.096  0.00  0.00    +0.160 C 
BRANCH  55  56
ATOM     56  C   ASP A   8      -2.897   4.310  13.987  0.00  0.00    +0.241 C 
ATOM     57  O   ASP A   8      -2.076   3.542  14.495  0.00  0.00    -0.273 OA
ATOM     58  N   THR A   9      -4.208   4.216  14.160  0.00  0.00    -0.295 N 
ATOM     59  H   THR A   9      -4.814   4.914  13.682  0.00  0.00    +0.150 HD
BRANCH  58  60
ATOM     60  CA  THR A   9      -4.857   3.192  14.981  0.00  0.00    +0.176 C 
BRANCH  60  61
ATOM     61  C   THR A   9      -5.396   2.087  14.077  0.00  0.00    +0.243 C 
ATOM     62  N   VAL A  10      -4.954   0.854  14.315  0.00  0.00    -0.297 N 
ATOM     63  H   VAL A  10      -4.274   0.701  15.087  0.00  0.00    +0.150 HD
ATOM     64  O   THR A   9      -6.180   2.357  13.166  0.00  0.00    -0.273 OA
BRANCH  62  65
ATOM     65  CA  VAL A  10      -5.401  -0.299  13.515  0.00  0.00    +0.149 C 
BRANCH  65  66
ATOM     66  C   VAL A  10      -5.959  -1.391  14.429  0.00  0.00    +0.241 C 
ATOM     67  O   VAL A  10      -5.280  -1.870  15.337  0.00  0.00    -0.273 OA
ATOM     68  N   ILE A  11      -7.220  -1.743  14.195  0.00  0.00    -0.298 N 
ATOM     69  H   ILE A  11      -7.730  -1.276  13.418  0.00  0.00    +0.150 HD
BRANCH  68  70
ATOM     70  CA  ILE A  11      -7.927  -2.764  14.986  0.00  0.00    +0.137 C 
BRANCH  70  71
ATOM     71  C   ILE A  11      -8.171  -4.020  14.146  0.00  0.00    +0.227 C 
ATOM     72  O   ILE A  11      -8.323  -3.943  12.928  0.00  0.00    -0.286 OA
ENDBRANCH  70  71
BRANCH  70  73
ATOM     73  CB  ILE A  11      -9.310  -2.214  15.444  0.00  0.00    +0.026 C 
ATOM     74  CG2 ILE A  11     -10.080  -3.258  16.250  0.00  0.00    +0.002 C 
BRANCH  73  75
ATOM     75  CG1 ILE A  11      -9.134  -0.915  16.242  0.00  0.00    +0.002 C 
ATOM     76  CD1 ILE A  11      -8.349  -1.066  17.531  0.00  0.00    +0.000 C 
ENDBRANCH  73  75
ENDBRANCH  70  73
ENDBRANCH  68  70
ENDBRANCH  65  66
BRANCH  65  77
ATOM     77  CB  VAL A  10      -4.241  -0.901  12.688  0.00  0.00    +0.027 C 
ATOM     78  CG2 VAL A  10      -3.495   0.189  11.956  0.00  0.00    +0.002 C 
ATOM     79  CG1 VAL A  10      -4.773  -1.932  11.701  0.00  0.00    +0.002 C 
ENDBRANCH  65  77
ENDBRANCH  62  65
ENDBRANCH  60  61
BRANCH  60  80
ATOM     80  CB  THR A   9      -6.022   3.826  15.772  0.00  0.00    +0.137 C 
ATOM     81  CG2 THR A   9      -6.833   2.773  16.519  0.00  0.00    +0.034 C 
BRANCH  80  82
ATOM     82  OG1 THR A   9      -5.494   4.788  16.697  0.00  0.00    -0.382 OA
ATOM     83  HG1 THR A   9      -5.008   5.492  16.198  0.00  0.00    +0.210 HD
ENDBRANCH  80  82
ENDBRANCH  60  80
ENDBRANCH  58  60
ENDBRANCH  55  56
BRANCH  55  84
ATOM     84  CB  ASP A   8      -3.020   5.259  11.685  0.00  0.00    +0.143 C 
BRANCH  84  85
ATOM     85  CG  ASP A   8      -2.661   6.398  10.750  0.00  0.00    +0.367 C 
ATOM     86  OD2 ASP A   8      -3.112   7.542  10.996  0.00  0.00    -0.246 OA
ATOM     87  OD1 ASP A   8      -1.915   6.149   9.778  0.00  0.00    -0.246 OA
ENDBRANCH  84  85
ENDBRANCH  55  84
ENDBRANCH  53  55
ENDBRANCH  50  51
BRANCH  50  88
ATOM     88  CB  ASP A   7       1.328   7.290  11.781  0.00  0.00    +0.143 C 
BRANCH  88  89
ATOM     89  CG  ASP A   7       2.803   7.459  11.486  0.00  0.00    +0.367 C 
ATOM     90  OD2 ASP A   7       3.539   8.010  12.331  0.00  0.00    -0.246 OA
ATOM     91  OD1 ASP A   7       3.222   7.043  10.388  0.00  0.00    -0.246 OA
ENDBRANCH  88  89
ENDBRANCH  50  88
ENDBRANCH   3  50
TORSDOF 39
REMARK  Name = ../refined-set-2016/1d4k/1d4k_pocket.pdb
REMARK  229 active torsions:
REMARK  status: ('A' for Active; 'I' for Inactive)
REMARK    1  A    between atoms: _1  and  _3
REMARK    2  A    between atoms: _3  and  _4
REMARK    3  A    between atoms: _3  and  _6
REMARK    4  A    between atoms: _6  and  _7
REMARK    5  A    between atoms: _7  and  _8
REMARK    6  A    between atoms: _8  and  _9
REMARK    7  A    between atoms: _18  and  _20
REMARK    8  A    between atoms: _20  and  _21
REMARK    9  A    between atoms: _20  and  _23
REMARK   10  A    between atoms: _23  and  _24
REMARK   11  A    between atoms: _27  and  _29
REMARK   12  A    between atoms: _29  and  _30
REMARK   13  A    between atoms: _29  and  _32
REMARK   14  A    between atoms: _32  and  _33
REMARK   15  A    between atoms: _36  and  _38
REMARK   16  A    between atoms: _38  and  _39
REMARK   17  A    between atoms: _38  and  _41
REMARK   18  A    between atoms: _41  and  _42
REMARK   19  A    between atoms: _45  and  _47
REMARK   20  A    between atoms: _47  and  _48
REMARK   21  A    between atoms: _47  and  _50
REMARK   22  A    between atoms: _50  and  _51
REMARK   23  A    between atoms: _54  and  _56
REMARK   24  A    between atoms: _56  and  _57
REMARK   25  A    between atoms: _56  and  _59
REMARK   26  A    between atoms: _59  and  _60
REMARK   27  A    between atoms: _63  and  _65
REMARK   28  A    between atoms: _65  and  _66
REMARK   29  A    between atoms: _68  and  _70
REMARK   30  A    between atoms: _70  and  _71
REMARK   31  A    between atoms: _74  and  _76
REMARK   32  A    between atoms: _76  and  _77
REMARK   33  A    between atoms: _76  and  _79
REMARK   34  A    between atoms: _79  and  _80
REMARK   35  A    between atoms: _83  and  _85
REMARK   36  A    between atoms: _85  and  _86
REMARK   37  A    between atoms: _85  and  _88
REMARK   38  A    between atoms: _88  and  _89
REMARK   39  A    between atoms: _92  and  _94
REMARK   40  A    between atoms: _94  and  _95
REMARK   41  A    between atoms: _94  and  _97
REMARK   42  A    between atoms: _97  and  _98
REMARK   43  A    between atoms: _101  and  _103
REMARK   44  A    between atoms: _103  and  _104
REMARK   45  A    between atoms: _103  and  _106
REMARK   46  A    between atoms: _109  and  _111
REMARK   47  A    between atoms: _111  and  _112
REMARK   48  A    between atoms: _111  and  _114
REMARK   49  A    between atoms: _114  and  _115
REMARK   50  A    between atoms: _118  and  _120
REMARK   51  A    between atoms: _120  and  _121
REMARK   52  A    between atoms: _120  and  _123
REMARK   53  A    between atoms: _123  and  _124
REMARK   54  A    between atoms: _124  and  _125
REMARK   55  A    between atoms: _127  and  _129
REMARK   56  A    between atoms: _129  and  _130
REMARK   57  A    between atoms: _129  and  _132
REMARK   58  A    between atoms: _132  and  _133
REMARK   59  A    between atoms: _136  and  _138
REMARK   60  A    between atoms: _138  and  _139
REMARK   61  A    between atoms: _141  and  _143
REMARK   62  A    between atoms: _143  and  _144
REMARK   63  A    between atoms: _146  and  _148
REMARK   64  A    between atoms: _148  and  _149
REMARK   65  A    between atoms: _148  and  _151
REMARK   66  A    between atoms: _151  and  _152
REMARK   67  A    between atoms: _155  and  _157
REMARK   68  A    between atoms: _157  and  _158
REMARK   69  A    between atoms: _160  and  _162
REMARK   70  A    between atoms: _162  and  _163
REMARK   71  A    between atoms: _165  and  _167
REMARK   72  A    between atoms: _167  and  _168
REMARK   73  A    between atoms: _167  and  _170
REMARK   74  A    between atoms: _170  and  _171
REMARK   75  A    between atoms: _174  and  _176
REMARK   76  A    between atoms: _176  and  _177
REMARK   77  A    between atoms: _176  and  _179
REMARK   78  A    between atoms: _182  and  _184
REMARK   79  A    between atoms: _184  and  _185
REMARK   80  A    between atoms: _184  and  _187
REMARK   81  A    between atoms: _187  and  _188
REMARK   82  A    between atoms: _191  and  _193
REMARK   83  A    between atoms: _193  and  _194
REMARK   84  A    between atoms: _193  and  _196
REMARK   85  A    between atoms: _196  and  _197
REMARK   86  A    between atoms: _201  and  _202
REMARK   87  A    between atoms: _207  and  _209
REMARK   88  A    between atoms: _209  and  _210
REMARK   89  A    between atoms: _209  and  _212
REMARK   90  A    between atoms: _215  and  _217
REMARK   91  A    between atoms: _217  and  _218
REMARK   92  A    between atoms: _217  and  _220
REMARK   93  A    between atoms: _220  and  _221
REMARK   94  A    between atoms: _226  and  _228
REMARK   95  A    between atoms: _228  and  _229
REMARK   96  A    between atoms: _228  and  _231
REMARK   97  A    between atoms: _231  and  _232
REMARK   98  A    between atoms: _235  and  _237
REMARK   99  A    between atoms: _237  and  _238
REMARK  100  A    between atoms: _237  and  _240
REMARK  101  A    between atoms: _240  and  _241
REMARK  102  A    between atoms: _244  and  _246
REMARK  103  A    between atoms: _246  and  _247
REMARK  104  A    between atoms: _249  and  _251
REMARK  105  A    between atoms: _251  and  _252
REMARK  106  A    between atoms: _251  and  _254
REMARK  107  A    between atoms: _254  and  _255
REMARK  108  A    between atoms: _255  and  _256
REMARK  109  A    between atoms: _256  and  _257
REMARK  110  A    between atoms: _266  and  _268
REMARK  111  A    between atoms: _268  and  _269
REMARK  112  A    between atoms: _268  and  _271
REMARK  113  A    between atoms: _271  and  _272
REMARK  114  A    between atoms: _277  and  _279
REMARK  115  A    between atoms: _279  and  _280
REMARK  116  A    between atoms: _279  and  _282
REMARK  117  A    between atoms: _282  and  _283
REMARK  118  A    between atoms: _283  and  _284
REMARK  119  A    between atoms: _284  and  _285
REMARK  120  A    between atoms: _294  and  _296
REMARK  121  A    between atoms: _296  and  _297
REMARK  122  A    between atoms: _296  and  _299
REMARK  123  A    between atoms: _299  and  _300
REMARK  124  A    between atoms: _303  and  _305
REMARK  125  A    between atoms: _305  and  _306
REMARK  126  A    between atoms: _305  and  _308
REMARK  127  A    between atoms: _308  and  _309
REMARK  128  A    between atoms: _312  and  _314
REMARK  129  A    between atoms: _314  and  _315
REMARK  130  A    between atoms: _314  and  _317
REMARK  131  A    between atoms: _317  and  _318
REMARK  132  A    between atoms: _321  and  _323
REMARK  133  A    between atoms: _323  and  _324
REMARK  134  A    between atoms: _323  and  _326
REMARK  135  A    between atoms: _326  and  _327
REMARK  136  A    between atoms: _330  and  _332
REMARK  137  A    between atoms: _332  and  _333
REMARK  138  A    between atoms: _332  and  _335
REMARK  139  A    between atoms: _335  and  _336
REMARK  140  A    between atoms: _339  and  _341
REMARK  141  A    between atoms: _341  and  _342
REMARK  142  A    between atoms: _344  and  _346
REMARK  143  A    between atoms: _346  and  _347
REMARK  144  A    between atoms: _350  and  _352
REMARK  145  A    between atoms: _352  and  _353
REMARK  146  A    between atoms: _352  and  _355
REMARK  147  A    between atoms: _355  and  _356
REMARK  148  A    between atoms: _359  and  _361
REMARK  149  A    between atoms: _361  and  _362
REMARK  150  A    between atoms: _361  and  _364
REMARK  151  A    between atoms: _364  and  _365
REMARK  152  A    between atoms: _368  and  _370
REMARK  153  A    between atoms: _370  and  _371
REMARK  154  A    between atoms: _370  and  _373
REMARK  155  A    between atoms: _373  and  _374
REMARK  156  A    between atoms: _377  and  _379
REMARK  157  A    between atoms: _379  and  _380
REMARK  158  A    between atoms: _379  and  _382
REMARK  159  A    between atoms: _385  and  _387
REMARK  160  A    between atoms: _387  and  _388
REMARK  161  A    between atoms: _387  and  _390
REMARK  162  A    between atoms: _390  and  _391
REMARK  163  A    between atoms: _391  and  _392
REMARK  164  A    between atoms: _392  and  _393
REMARK  165  A    between atoms: _393  and  _394
REMARK  166  A    between atoms: _398  and  _400
REMARK  167  A    between atoms: _400  and  _401
REMARK  168  A    between atoms: _400  and  _403
REMARK  169  A    between atoms: _403  and  _404
REMARK  170  A    between atoms: _404  and  _405
REMARK  171  A    between atoms: _407  and  _409
REMARK  172  A    between atoms: _409  and  _410
REMARK  173  A    between atoms: _409  and  _412
REMARK  174  A    between atoms: _412  and  _413
REMARK  175  A    between atoms: _416  and  _418
REMARK  176  A    between atoms: _418  and  _419
REMARK  177  A    between atoms: _421  and  _423
REMARK  178  A    between atoms: _423  and  _424
REMARK  179  A    between atoms: _426  and  _428
REMARK  180  A    between atoms: _428  and  _429
REMARK  181  A    between atoms: _428  and  _431
REMARK  182  A    between atoms: _431  and  _432
REMARK  183  A    between atoms: _435  and  _437
REMARK  184  A    between atoms: _437  and  _438
REMARK  185  A    between atoms: _440  and  _442
REMARK  186  A    between atoms: _442  and  _443
REMARK  187  A    between atoms: _445  and  _447
REMARK  188  A    between atoms: _447  and  _448
REMARK  189  A    between atoms: _447  and  _450
REMARK  190  A    between atoms: _450  and  _451
REMARK  191  A    between atoms: _457  and  _459
REMARK  192  A    between atoms: _459  and  _460
REMARK  193  A    between atoms: _459  and  _462
REMARK  194  A    between atoms: _462  and  _463
REMARK  195  A    between atoms: _466  and  _468
REMARK  196  A    between atoms: _468  and  _469
REMARK  197  A    between atoms: _468  and  _471
REMARK  198  A    between atoms: _474  and  _476
REMARK  199  A    between atoms: _476  and  _477
REMARK  200  A    between atoms: _476  and  _479
REMARK  201  A    between atoms: _479  and  _480
REMARK  202  A    between atoms: _483  and  _485
REMARK  203  A    between atoms: _485  and  _486
REMARK  204  A    between atoms: _485  and  _488
REMARK  205  A    between atoms: _488  and  _489
REMARK  206  A    between atoms: _493  and  _494
REMARK  207  A    between atoms: _499  and  _501
REMARK  208  A    between atoms: _501  and  _502
REMARK  209  A    between atoms: _501  and  _504
REMARK  210  A    between atoms: _507  and  _509
REMARK  211  A    between atoms: _509  and  _510
REMARK  212  A    between atoms: _509  and  _512
REMARK  213  A    between atoms: _512  and  _513
REMARK  214  A    between atoms: _518  and  _520
REMARK  215  A    between atoms: _520  and  _521
REMARK  216  A    between atoms: _520  and  _523
REMARK  217  A    between atoms: _523  and  _524
REMARK  218  A    between atoms: _527  and  _529
REMARK  219  A    between atoms: _529  and  _530
REMARK  220  A    between atoms: _529  and  _532
REMARK  221  A    between atoms: _532  and  _533
REMARK  222  A    between atoms: _536  and  _538
REMARK  223  A    between atoms: _538  and  _539
REMARK  224  A    between atoms: _541  and  _543
REMARK  225  A    between atoms: _543  and  _544
REMARK  226  A    between atoms: _543  and  _546
REMARK  227  A    between atoms: _546  and  _547
REMARK  228  A    between atoms: _547  and  _548
REMARK  229  A    between atoms: _548  and  _549
REMARK                            x       y       z     vdW  Elec       q    Type
REMARK                         _______ _______ _______ _____ _____    ______ ____
ROOT
ATOM      1  C   GLY A   3       3.672   0.118   7.153  0.00  0.00    +0.243 C 
ATOM      2  O   GLY A   3       3.661   1.151   7.817  0.00  0.00    -0.273 OA
ATOM      3  N   GLY A   4       4.279  -0.993   7.544  0.00  0.00    -0.295 N 
ATOM      4  H   GLY A   4       4.223  -1.843   6.947  0.00  0.00    +0.150 HD
ENDROOT
BRANCH   3   5
ATOM      5  CA  GLY A   4       5.020  -1.045   8.789  0.00  0.00    +0.176 C 
BRANCH   5   6
ATOM      6  C   GLY A   4       6.263  -1.875   8.546  0.00  0.00    +0.243 C 
ATOM      7  N   ILE A   5       6.732  -2.575   9.574  0.00  0.00    -0.297 N 
ATOM      8  H   ILE A   5       6.256  -2.512  10.497  0.00  0.00    +0.150 HD
ATOM      9  O   GLY A   4       6.810  -1.857   7.438  0.00  0.00    -0.273 OA
BRANCH   7  10
ATOM     10  CA  ILE A   5       7.914  -3.437   9.425  0.00  0.00    +0.149 C 
BRANCH  10  11
ATOM     11  C   ILE A   5       7.463  -4.822   8.982  0.00  0.00    +0.241 C 
ATOM     12  O   ILE A   5       6.719  -5.507   9.687  0.00  0.00    -0.273 OA
ATOM     13  N   GLY A   6       7.899  -5.210   7.789  0.00  0.00    -0.295 N 
ATOM     14  H   GLY A   6       8.516  -4.580   7.238  0.00  0.00    +0.150 HD
BRANCH  13  15
ATOM     15  CA  GLY A   6       7.526  -6.500   7.246  0.00  0.00    +0.176 C 
BRANCH  15  16
ATOM     16  C   GLY A   6       6.793  -6.333   5.930  0.00  0.00    +0.243 C 
ATOM     17  N   GLY A   7       6.170  -5.169   5.739  0.00  0.00    -0.296 N 
ATOM     18  H   GLY A   7       6.199  -4.443   6.483  0.00  0.00    +0.150 HD
ATOM     19  O   GLY A   6       6.768  -7.256   5.114  0.00  0.00    -0.273 OA
BRANCH  17  20
ATOM     20  CA  GLY A   7       5.451  -4.902   4.504  0.00  0.00    +0.163 C 
BRANCH  20  21
ATOM     21  C   GLY A   7       4.232  -4.000   4.590  0.00  0.00    +0.229 C 
ATOM     22  O   GLY A   7       3.986  -3.341   5.602  0.00  0.00    -0.286 OA
ENDBRANCH  20  21
ENDBRANCH  17  20
ENDBRANCH  15  16
ENDBRANCH  13  15
ENDBRANCH  10  11
BRANCH  10  23
ATOM     23  CB  ILE A   5       8.755  -3.513  10.727  0.00  0.00    +0.027 C 
ATOM     24  CG2 ILE A   5       9.575  -4.803  10.774  0.00  0.00    +0.002 C 
BRANCH  23  25
ATOM     25  CG1 ILE A   5       9.669  -2.287  10.811  0.00  0.00    +0.002 C 
ATOM     26  CD1 ILE A   5      10.731  -2.379  11.872  0.00  0.00    +0.000 C 
ENDBRANCH  23  25
ENDBRANCH  10  23
ENDBRANCH   7  10
ENDBRANCH   5   6
ENDBRANCH   3   5
BRANCH   1  27
ATOM     27  CA  GLY A   3       2.959   0.035   5.823  0.00  0.00    +0.176 C 
BRANCH  27  29
ATOM     28  C   ILE A   2       0.602   0.284   5.415  0.00  0.00    +0.241 C 
ATOM     29  N   GLY A   3       1.753   0.834   5.776  0.00  0.00    -0.295 N 
ATOM     30  H   GLY A   3       1.789   1.843   6.026  0.00  0.00    +0.150 HD
ATOM     31  O   ILE A   2       0.492  -0.905   5.100  0.00  0.00    -0.273 OA
BRANCH  28  32
ATOM     32  CA  ILE A   2      -0.605   1.210   5.397  0.00  0.00    +0.148 C 
BRANCH  32  34
ATOM     33  C   MET A   1      -1.934   1.426   3.359  0.00  0.00    +0.238 C 
ATOM     34  N   ILE A   2      -1.576   0.704   4.415  0.00  0.00    -0.297 N 
ATOM     35  H   ILE A   2      -1.991  -0.240   4.550  0.00  0.00    +0.150 HD
ATOM     36  O   MET A   1      -1.535   2.574   3.163  0.00  0.00    -0.274 OA
BRANCH  33  37
ATOM     37  CA  MET A   1      -2.917   0.775   2.402  0.00  0.00    +0.146 C 
BRANCH  37  38
ATOM     38  N   MET A   1      -4.133   1.592   2.288  0.00  0.00    -0.238 NA
ATOM     39  H   MET A   1      -4.037   2.602   2.062  0.00  0.00    +0.142 HD
ENDBRANCH  37  38
BRANCH  37  40
ATOM     40  CB  MET A   1      -2.251   0.577   1.037  0.00  0.00    +0.038 C 
BRANCH  40  41
ATOM     41  CG  MET A   1      -2.845  -0.544   0.197  0.00  0.00    +0.060 C 
BRANCH  41  42
ATOM     42  SD  MET A   1      -1.898  -0.834  -1.316  0.00  0.00    -0.139 S 
ATOM     43  CE  MET A   1      -0.448  -1.646  -0.653  0.00  0.00    +0.069 C 
ENDBRANCH  41  42
ENDBRANCH  40  41
ENDBRANCH  37  40
ENDBRANCH  33  37
ENDBRANCH  32  34
BRANCH  32  44
ATOM     44  CB  ILE A   2      -1.192   1.305   6.831  0.00  0.00    +0.027 C 
ATOM     45  CG2 ILE A   2      -2.312   2.331   6.876  0.00  0.00    +0.002 C 
BRANCH  44  46
ATOM     46  CG1 ILE A   2      -1.681  -0.066   7.305  0.00  0.00    +0.002 C 
ATOM     47  CD1 ILE A   2      -2.095  -0.100   8.758  0.00  0.00    +0.000 C 
ENDBRANCH  44  46
ENDBRANCH  32  44
ENDBRANCH  28  32
ENDBRANCH  27  29
ENDBRANCH   1  27
TORSDOF 21
REMARK  Name = ../refined-set-2016/1d4k/1d4k_pocket.pdb
REMARK  229 active torsions:
REMARK  status: ('A' for Active; 'I' for Inactive)
REMARK    1  A    between atoms: _1  and  _3
REMARK    2  A    between atoms: _3  and  _4
REMARK    3  A    between atoms: _3  and  _6
REMARK    4  A    between atoms: _6  and  _7
REMARK    5  A    between atoms: _7  and  _8
REMARK    6  A    between atoms: _8  and  _9
REMARK    7  A    between atoms: _18  and  _20
REMARK    8  A    between atoms: _20  and  _21
REMARK    9  A    between atoms: _20  and  _23
REMARK   10  A    between atoms: _23  and  _24
REMARK   11  A    between atoms: _27  and  _29
REMARK   12  A    between atoms: _29  and  _30
REMARK   13  A    between atoms: _29  and  _32
REMARK   14  A    between atoms: _32  and  _33
REMARK   15  A    between atoms: _36  and  _38
REMARK   16  A    between atoms: _38  and  _39
REMARK   17  A    between atoms: _38  and  _41
REMARK   18  A    between atoms: _41  and  _42
REMARK   19  A    between atoms: _45  and  _47
REMARK   20  A    between atoms: _47  and  _48
REMARK   21  A    between atoms: _47  and  _50
REMARK   22  A    between atoms: _50  and  _51
REMARK   23  A    between atoms: _54  and  _56
REMARK   24  A    between atoms: _56  and  _57
REMARK   25  A    between atoms: _56  and  _59
REMARK   26  A    between atoms: _59  and  _60
REMARK   27  A    between atoms: _63  and  _65
REMARK   28  A    between atoms: _65  and  _66
REMARK   29  A    between atoms: _68  and  _70
REMARK   30  A    between atoms: _70  and  _71
REMARK   31  A    between atoms: _74  and  _76
REMARK   32  A    between atoms: _76  and  _77
REMARK   33  A    between atoms: _76  and  _79
REMARK   34  A    between atoms: _79  and  _80
REMARK   35  A    between atoms: _83  and  _85
REMARK   36  A    between atoms: _85  and  _86
REMARK   37  A    between atoms: _85  and  _88
REMARK   38  A    between atoms: _88  and  _89
REMARK   39  A    between atoms: _92  and  _94
REMARK   40  A    between atoms: _94  and  _95
REMARK   41  A    between atoms: _94  and  _97
REMARK   42  A    between atoms: _97  and  _98
REMARK   43  A    between atoms: _101  and  _103
REMARK   44  A    between atoms: _103  and  _104
REMARK   45  A    between atoms: _103  and  _106
REMARK   46  A    between atoms: _109  and  _111
REMARK   47  A    between atoms: _111  and  _112
REMARK   48  A    between atoms: _111  and  _114
REMARK   49  A    between atoms: _114  and  _115
REMARK   50  A    between atoms: _118  and  _120
REMARK   51  A    between atoms: _120  and  _121
REMARK   52  A    between atoms: _120  and  _123
REMARK   53  A    between atoms: _123  and  _124
REMARK   54  A    between atoms: _124  and  _125
REMARK   55  A    between atoms: _127  and  _129
REMARK   56  A    between atoms: _129  and  _130
REMARK   57  A    between atoms: _129  and  _132
REMARK   58  A    between atoms: _132  and  _133
REMARK   59  A    between atoms: _136  and  _138
REMARK   60  A    between atoms: _138  and  _139
REMARK   61  A    between atoms: _141  and  _143
REMARK   62  A    between atoms: _143  and  _144
REMARK   63  A    between atoms: _146  and  _148
REMARK   64  A    between atoms: _148  and  _149
REMARK   65  A    between atoms: _148  and  _151
REMARK   66  A    between atoms: _151  and  _152
REMARK   67  A    between atoms: _155  and  _157
REMARK   68  A    between atoms: _157  and  _158
REMARK   69  A    between atoms: _160  and  _162
REMARK   70  A    between atoms: _162  and  _163
REMARK   71  A    between atoms: _165  and  _167
REMARK   72  A    between atoms: _167  and  _168
REMARK   73  A    between atoms: _167  and  _170
REMARK   74  A    between atoms: _170  and  _171
REMARK   75  A    between atoms: _174  and  _176
REMARK   76  A    between atoms: _176  and  _177
REMARK   77  A    between atoms: _176  and  _179
REMARK   78  A    between atoms: _182  and  _184
REMARK   79  A    between atoms: _184  and  _185
REMARK   80  A    between atoms: _184  and  _187
REMARK   81  A    between atoms: _187  and  _188
REMARK   82  A    between atoms: _191  and  _193
REMARK   83  A    between atoms: _193  and  _194
REMARK   84  A    between atoms: _193  and  _196
REMARK   85  A    between atoms: _196  and  _197
REMARK   86  A    between atoms: _201  and  _202
REMARK   87  A    between atoms: _207  and  _209
REMARK   88  A    between atoms: _209  and  _210
REMARK   89  A    between atoms: _209  and  _212
REMARK   90  A    between atoms: _215  and  _217
REMARK   91  A    between atoms: _217  and  _218
REMARK   92  A    between atoms: _217  and  _220
REMARK   93  A    between atoms: _220  and  _221
REMARK   94  A    between atoms: _226  and  _228
REMARK   95  A    between atoms: _228  and  _229
REMARK   96  A    between atoms: _228  and  _231
REMARK   97  A    between atoms: _231  and  _232
REMARK   98  A    between atoms: _235  and  _237
REMARK   99  A    between atoms: _237  and  _238
REMARK  100  A    between atoms: _237  and  _240
REMARK  101  A    between atoms: _240  and  _241
REMARK  102  A    between atoms: _244  and  _246
REMARK  103  A    between atoms: _246  and  _247
REMARK  104  A    between atoms: _249  and  _251
REMARK  105  A    between atoms: _251  and  _252
REMARK  106  A    between atoms: _251  and  _254
REMARK  107  A    between atoms: _254  and  _255
REMARK  108  A    between atoms: _255  and  _256
REMARK  109  A    between atoms: _256  and  _257
REMARK  110  A    between atoms: _266  and  _268
REMARK  111  A    between atoms: _268  and  _269
REMARK  112  A    between atoms: _268  and  _271
REMARK  113  A    between atoms: _271  and  _272
REMARK  114  A    between atoms: _277  and  _279
REMARK  115  A    between atoms: _279  and  _280
REMARK  116  A    between atoms: _279  and  _282
REMARK  117  A    between atoms: _282  and  _283
REMARK  118  A    between atoms: _283  and  _284
REMARK  119  A    between atoms: _284  and  _285
REMARK  120  A    between atoms: _294  and  _296
REMARK  121  A    between atoms: _296  and  _297
REMARK  122  A    between atoms: _296  and  _299
REMARK  123  A    between atoms: _299  and  _300
REMARK  124  A    between atoms: _303  and  _305
REMARK  125  A    between atoms: _305  and  _306
REMARK  126  A    between atoms: _305  and  _308
REMARK  127  A    between atoms: _308  and  _309
REMARK  128  A    between atoms: _312  and  _314
REMARK  129  A    between atoms: _314  and  _315
REMARK  130  A    between atoms: _314  and  _317
REMARK  131  A    between atoms: _317  and  _318
REMARK  132  A    between atoms: _321  and  _323
REMARK  133  A    between atoms: _323  and  _324
REMARK  134  A    between atoms: _323  and  _326
REMARK  135  A    between atoms: _326  and  _327
REMARK  136  A    between atoms: _330  and  _332
REMARK  137  A    between atoms: _332  and  _333
REMARK  138  A    between atoms: _332  and  _335
REMARK  139  A    between atoms: _335  and  _336
REMARK  140  A    between atoms: _339  and  _341
REMARK  141  A    between atoms: _341  and  _342
REMARK  142  A    between atoms: _344  and  _346
REMARK  143  A    between atoms: _346  and  _347
REMARK  144  A    between atoms: _350  and  _352
REMARK  145  A    between atoms: _352  and  _353
REMARK  146  A    between atoms: _352  and  _355
REMARK  147  A    between atoms: _355  and  _356
REMARK  148  A    between atoms: _359  and  _361
REMARK  149  A    between atoms: _361  and  _362
REMARK  150  A    between atoms: _361  and  _364
REMARK  151  A    between atoms: _364  and  _365
REMARK  152  A    between atoms: _368  and  _370
REMARK  153  A    between atoms: _370  and  _371
REMARK  154  A    between atoms: _370  and  _373
REMARK  155  A    between atoms: _373  and  _374
REMARK  156  A    between atoms: _377  and  _379
REMARK  157  A    between atoms: _379  and  _380
REMARK  158  A    between atoms: _379  and  _382
REMARK  159  A    between atoms: _385  and  _387
REMARK  160  A    between atoms: _387  and  _388
REMARK  161  A    between atoms: _387  and  _390
REMARK  162  A    between atoms: _390  and  _391
REMARK  163  A    between atoms: _391  and  _392
REMARK  164  A    between atoms: _392  and  _393
REMARK  165  A    between atoms: _393  and  _394
REMARK  166  A    between atoms: _398  and  _400
REMARK  167  A    between atoms: _400  and  _401
REMARK  168  A    between atoms: _400  and  _403
REMARK  169  A    between atoms: _403  and  _404
REMARK  170  A    between atoms: _404  and  _405
REMARK  171  A    between atoms: _407  and  _409
REMARK  172  A    between atoms: _409  and  _410
REMARK  173  A    between atoms: _409  and  _412
REMARK  174  A    between atoms: _412  and  _413
REMARK  175  A    between atoms: _416  and  _418
REMARK  176  A    between atoms: _418  and  _419
REMARK  177  A    between atoms: _421  and  _423
REMARK  178  A    between atoms: _423  and  _424
REMARK  179  A    between atoms: _426  and  _428
REMARK  180  A    between atoms: _428  and  _429
REMARK  181  A    between atoms: _428  and  _431
REMARK  182  A    between atoms: _431  and  _432
REMARK  183  A    between atoms: _435  and  _437
REMARK  184  A    between atoms: _437  and  _438
REMARK  185  A    between atoms: _440  and  _442
REMARK  186  A    between atoms: _442  and  _443
REMARK  187  A    between atoms: _445  and  _447
REMARK  188  A    between atoms: _447  and  _448
REMARK  189  A    between atoms: _447  and  _450
REMARK  190  A    between atoms: _450  and  _451
REMARK  191  A    between atoms: _457  and  _459
REMARK  192  A    between atoms: _459  and  _460
REMARK  193  A    between atoms: _459  and  _462
REMARK  194  A    between atoms: _462  and  _463
REMARK  195  A    between atoms: _466  and  _468
REMARK  196  A    between atoms: _468  and  _469
REMARK  197  A    between atoms: _468  and  _471
REMARK  198  A    between atoms: _474  and  _476
REMARK  199  A    between atoms: _476  and  _477
REMARK  200  A    between atoms: _476  and  _479
REMARK  201  A    between atoms: _479  and  _480
REMARK  202  A    between atoms: _483  and  _485
REMARK  203  A    between atoms: _485  and  _486
REMARK  204  A    between atoms: _485  and  _488
REMARK  205  A    between atoms: _488  and  _489
REMARK  206  A    between atoms: _493  and  _494
REMARK  207  A    between atoms: _499  and  _501
REMARK  208  A    between atoms: _501  and  _502
REMARK  209  A    between atoms: _501  and  _504
REMARK  210  A    between atoms: _507  and  _509
REMARK  211  A    between atoms: _509  and  _510
REMARK  212  A    between atoms: _509  and  _512
REMARK  213  A    between atoms: _512  and  _513
REMARK  214  A    between atoms: _518  and  _520
REMARK  215  A    between atoms: _520  and  _521
REMARK  216  A    between atoms: _520  and  _523
REMARK  217  A    between atoms: _523  and  _524
REMARK  218  A    between atoms: _527  and  _529
REMARK  219  A    between atoms: _529  and  _530
REMARK  220  A    between atoms: _529  and  _532
REMARK  221  A    between atoms: _532  and  _533
REMARK  222  A    between atoms: _536  and  _538
REMARK  223  A    between atoms: _538  and  _539
REMARK  224  A    between atoms: _541  and  _543
REMARK  225  A    between atoms: _543  and  _544
REMARK  226  A    between atoms: _543  and  _546
REMARK  227  A    between atoms: _546  and  _547
REMARK  228  A    between atoms: _547  and  _548
REMARK  229  A    between atoms: _548  and  _549
REMARK                            x       y       z     vdW  Elec       q    Type
REMARK                         _______ _______ _______ _____ _____    ______ ____
ROOT
ATOM      1  CA  ILE A   1      -1.284  -4.298   4.218  0.00  0.00    +0.133 C 
ENDROOT
BRANCH   1   2
ATOM      2  N   ILE A   1      -0.033  -3.537   4.090  0.00  0.00    -0.239 NA
ATOM      3  H   ILE A   1       0.020  -2.574   4.478  0.00  0.00    +0.142 HD
ENDBRANCH   1   2
BRANCH   1   4
ATOM      4  CB  ILE A   1      -1.532  -4.828   5.658  0.00  0.00    +0.023 C 
ATOM      5  CG2 ILE A   1      -0.438  -5.804   6.057  0.00  0.00    +0.002 C 
BRANCH   4   6
ATOM      6  CG1 ILE A   1      -1.635  -3.676   6.659  0.00  0.00    +0.002 C 
ATOM      7  CD1 ILE A   1      -2.188  -4.093   8.012  0.00  0.00    +0.000 C 
ENDBRANCH   4   6
ENDBRANCH   1   4
BRANCH   1   8
ATOM      8  C   ILE A   1      -2.465  -3.434   3.794  0.00  0.00    +0.224 C 
ATOM      9  O   ILE A   1      -2.377  -2.207   3.781  0.00  0.00    -0.287 OA
ENDBRANCH   1   8
TORSDOF 4
REMARK  Name = ../refined-set-2016/1d4k/1d4k_pocket.pdb
REMARK  229 active torsions:
REMARK  status: ('A' for Active; 'I' for Inactive)
REMARK    1  A    between atoms: _1  and  _3
REMARK    2  A    between atoms: _3  and  _4
REMARK    3  A    between atoms: _3  and  _6
REMARK    4  A    between atoms: _6  and  _7
REMARK    5  A    between atoms: _7  and  _8
REMARK    6  A    between atoms: _8  and  _9
REMARK    7  A    between atoms: _18  and  _20
REMARK    8  A    between atoms: _20  and  _21
REMARK    9  A    between atoms: _20  and  _23
REMARK   10  A    between atoms: _23  and  _24
REMARK   11  A    between atoms: _27  and  _29
REMARK   12  A    between atoms: _29  and  _30
REMARK   13  A    between atoms: _29  and  _32
REMARK   14  A    between atoms: _32  and  _33
REMARK   15  A    between atoms: _36  and  _38
REMARK   16  A    between atoms: _38  and  _39
REMARK   17  A    between atoms: _38  and  _41
REMARK   18  A    between atoms: _41  and  _42
REMARK   19  A    between atoms: _45  and  _47
REMARK   20  A    between atoms: _47  and  _48
REMARK   21  A    between atoms: _47  and  _50
REMARK   22  A    between atoms: _50  and  _51
REMARK   23  A    between atoms: _54  and  _56
REMARK   24  A    between atoms: _56  and  _57
REMARK   25  A    between atoms: _56  and  _59
REMARK   26  A    between atoms: _59  and  _60
REMARK   27  A    between atoms: _63  and  _65
REMARK   28  A    between atoms: _65  and  _66
REMARK   29  A    between atoms: _68  and  _70
REMARK   30  A    between atoms: _70  and  _71
REMARK   31  A    between atoms: _74  and  _76
REMARK   32  A    between atoms: _76  and  _77
REMARK   33  A    between atoms: _76  and  _79
REMARK   34  A    between atoms: _79  and  _80
REMARK   35  A    between atoms: _83  and  _85
REMARK   36  A    between atoms: _85  and  _86
REMARK   37  A    between atoms: _85  and  _88
REMARK   38  A    between atoms: _88  and  _89
REMARK   39  A    between atoms: _92  and  _94
REMARK   40  A    between atoms: _94  and  _95
REMARK   41  A    between atoms: _94  and  _97
REMARK   42  A    between atoms: _97  and  _98
REMARK   43  A    between atoms: _101  and  _103
REMARK   44  A    between atoms: _103  and  _104
REMARK   45  A    between atoms: _103  and  _106
REMARK   46  A    between atoms: _109  and  _111
REMARK   47  A    between atoms: _111  and  _112
REMARK   48  A    between atoms: _111  and  _114
REMARK   49  A    between atoms: _114  and  _115
REMARK   50  A    between atoms: _118  and  _120
REMARK   51  A    between atoms: _120  and  _121
REMARK   52  A    between atoms: _120  and  _123
REMARK   53  A    between atoms: _123  and  _124
REMARK   54  A    between atoms: _124  and  _125
REMARK   55  A    between atoms: _127  and  _129
REMARK   56  A    between atoms: _129  and  _130
REMARK   57  A    between atoms: _129  and  _132
REMARK   58  A    between atoms: _132  and  _133
REMARK   59  A    between atoms: _136  and  _138
REMARK   60  A    between atoms: _138  and  _139
REMARK   61  A    between atoms: _141  and  _143
REMARK   62  A    between atoms: _143  and  _144
REMARK   63  A    between atoms: _146  and  _148
REMARK   64  A    between atoms: _148  and  _149
REMARK   65  A    between atoms: _148  and  _151
REMARK   66  A    between atoms: _151  and  _152
REMARK   67  A    between atoms: _155  and  _157
REMARK   68  A    between atoms: _157  and  _158
REMARK   69  A    between atoms: _160  and  _162
REMARK   70  A    between atoms: _162  and  _163
REMARK   71  A    between atoms: _165  and  _167
REMARK   72  A    between atoms: _167  and  _168
REMARK   73  A    between atoms: _167  and  _170
REMARK   74  A    between atoms: _170  and  _171
REMARK   75  A    between atoms: _174  and  _176
REMARK   76  A    between atoms: _176  and  _177
REMARK   77  A    between atoms: _176  and  _179
REMARK   78  A    between atoms: _182  and  _184
REMARK   79  A    between atoms: _184  and  _185
REMARK   80  A    between atoms: _184  and  _187
REMARK   81  A    between atoms: _187  and  _188
REMARK   82  A    between atoms: _191  and  _193
REMARK   83  A    between atoms: _193  and  _194
REMARK   84  A    between atoms: _193  and  _196
REMARK   85  A    between atoms: _196  and  _197
REMARK   86  A    between atoms: _201  and  _202
REMARK   87  A    between atoms: _207  and  _209
REMARK   88  A    between atoms: _209  and  _210
REMARK   89  A    between atoms: _209  and  _212
REMARK   90  A    between atoms: _215  and  _217
REMARK   91  A    between atoms: _217  and  _218
REMARK   92  A    between atoms: _217  and  _220
REMARK   93  A    between atoms: _220  and  _221
REMARK   94  A    between atoms: _226  and  _228
REMARK   95  A    between atoms: _228  and  _229
REMARK   96  A    between atoms: _228  and  _231
REMARK   97  A    between atoms: _231  and  _232
REMARK   98  A    between atoms: _235  and  _237
REMARK   99  A    between atoms: _237  and  _238
REMARK  100  A    between atoms: _237  and  _240
REMARK  101  A    between atoms: _240  and  _241
REMARK  102  A    between atoms: _244  and  _246
REMARK  103  A    between atoms: _246  and  _247
REMARK  104  A    between atoms: _249  and  _251
REMARK  105  A    between atoms: _251  and  _252
REMARK  106  A    between atoms: _251  and  _254
REMARK  107  A    between atoms: _254  and  _255
REMARK  108  A    between atoms: _255  and  _256
REMARK  109  A    between atoms: _256  and  _257
REMARK  110  A    between atoms: _266  and  _268
REMARK  111  A    between atoms: _268  and  _269
REMARK  112  A    between atoms: _268  and  _271
REMARK  113  A    between atoms: _271  and  _272
REMARK  114  A    between atoms: _277  and  _279
REMARK  115  A    between atoms: _279  and  _280
REMARK  116  A    between atoms: _279  and  _282
REMARK  117  A    between atoms: _282  and  _283
REMARK  118  A    between atoms: _283  and  _284
REMARK  119  A    between atoms: _284  and  _285
REMARK  120  A    between atoms: _294  and  _296
REMARK  121  A    between atoms: _296  and  _297
REMARK  122  A    between atoms: _296  and  _299
REMARK  123  A    between atoms: _299  and  _300
REMARK  124  A    between atoms: _303  and  _305
REMARK  125  A    between atoms: _305  and  _306
REMARK  126  A    between atoms: _305  and  _308
REMARK  127  A    between atoms: _308  and  _309
REMARK  128  A    between atoms: _312  and  _314
REMARK  129  A    between atoms: _314  and  _315
REMARK  130  A    between atoms: _314  and  _317
REMARK  131  A    between atoms: _317  and  _318
REMARK  132  A    between atoms: _321  and  _323
REMARK  133  A    between atoms: _323  and  _324
REMARK  134  A    between atoms: _323  and  _326
REMARK  135  A    between atoms: _326  and  _327
REMARK  136  A    between atoms: _330  and  _332
REMARK  137  A    between atoms: _332  and  _333
REMARK  138  A    between atoms: _332  and  _335
REMARK  139  A    between atoms: _335  and  _336
REMARK  140  A    between atoms: _339  and  _341
REMARK  141  A    between atoms: _341  and  _342
REMARK  142  A    between atoms: _344  and  _346
REMARK  143  A    between atoms: _346  and  _347
REMARK  144  A    between atoms: _350  and  _352
REMARK  145  A    between atoms: _352  and  _353
REMARK  146  A    between atoms: _352  and  _355
REMARK  147  A    between atoms: _355  and  _356
REMARK  148  A    between atoms: _359  and  _361
REMARK  149  A    between atoms: _361  and  _362
REMARK  150  A    between atoms: _361  and  _364
REMARK  151  A    between atoms: _364  and  _365
REMARK  152  A    between atoms: _368  and  _370
REMARK  153  A    between atoms: _370  and  _371
REMARK  154  A    between atoms: _370  and  _373
REMARK  155  A    between atoms: _373  and  _374
REMARK  156  A    between atoms: _377  and  _379
REMARK  157  A    between atoms: _379  and  _380
REMARK  158  A    between atoms: _379  and  _382
REMARK  159  A    between atoms: _385  and  _387
REMARK  160  A    between atoms: _387  and  _388
REMARK  161  A    between atoms: _387  and  _390
REMARK  162  A    between atoms: _390  and  _391
REMARK  163  A    between atoms: _391  and  _392
REMARK  164  A    between atoms: _392  and  _393
REMARK  165  A    between atoms: _393  and  _394
REMARK  166  A    between atoms: _398  and  _400
REMARK  167  A    between atoms: _400  and  _401
REMARK  168  A    between atoms: _400  and  _403
REMARK  169  A    between atoms: _403  and  _404
REMARK  170  A    between atoms: _404  and  _405
REMARK  171  A    between atoms: _407  and  _409
REMARK  172  A    between atoms: _409  and  _410
REMARK  173  A    between atoms: _409  and  _412
REMARK  174  A    between atoms: _412  and  _413
REMARK  175  A    between atoms: _416  and  _418
REMARK  176  A    between atoms: _418  and  _419
REMARK  177  A    between atoms: _421  and  _423
REMARK  178  A    between atoms: _423  and  _424
REMARK  179  A    between atoms: _426  and  _428
REMARK  180  A    between atoms: _428  and  _429
REMARK  181  A    between atoms: _428  and  _431
REMARK  182  A    between atoms: _431  and  _432
REMARK  183  A    between atoms: _435  and  _437
REMARK  184  A    between atoms: _437  and  _438
REMARK  185  A    between atoms: _440  and  _442
REMARK  186  A    between atoms: _442  and  _443
REMARK  187  A    between atoms: _445  and  _447
REMARK  188  A    between atoms: _447  and  _448
REMARK  189  A    between atoms: _447  and  _450
REMARK  190  A    between atoms: _450  and  _451
REMARK  191  A    between atoms: _457  and  _459
REMARK  192  A    between atoms: _459  and  _460
REMARK  193  A    between atoms: _459  and  _462
REMARK  194  A    between atoms: _462  and  _463
REMARK  195  A    between atoms: _466  and  _468
REMARK  196  A    between atoms: _468  and  _469
REMARK  197  A    between atoms: _468  and  _471
REMARK  198  A    between atoms: _474  and  _476
REMARK  199  A    between atoms: _476  and  _477
REMARK  200  A    between atoms: _476  and  _479
REMARK  201  A    between atoms: _479  and  _480
REMARK  202  A    between atoms: _483  and  _485
REMARK  203  A    between atoms: _485  and  _486
REMARK  204  A    between atoms: _485  and  _488
REMARK  205  A    between atoms: _488  and  _489
REMARK  206  A    between atoms: _493  and  _494
REMARK  207  A    between atoms: _499  and  _501
REMARK  208  A    between atoms: _501  and  _502
REMARK  209  A    between atoms: _501  and  _504
REMARK  210  A    between atoms: _507  and  _509
REMARK  211  A    between atoms: _509  and  _510
REMARK  212  A    between atoms: _509  and  _512
REMARK  213  A    between atoms: _512  and  _513
REMARK  214  A    between atoms: _518  and  _520
REMARK  215  A    between atoms: _520  and  _521
REMARK  216  A    between atoms: _520  and  _523
REMARK  217  A    between atoms: _523  and  _524
REMARK  218  A    between atoms: _527  and  _529
REMARK  219  A    between atoms: _529  and  _530
REMARK  220  A    between atoms: _529  and  _532
REMARK  221  A    between atoms: _532  and  _533
REMARK  222  A    between atoms: _536  and  _538
REMARK  223  A    between atoms: _538  and  _539
REMARK  224  A    between atoms: _541  and  _543
REMARK  225  A    between atoms: _543  and  _544
REMARK  226  A    between atoms: _543  and  _546
REMARK  227  A    between atoms: _546  and  _547
REMARK  228  A    between atoms: _547  and  _548
REMARK  229  A    between atoms: _548  and  _549
REMARK                            x       y       z     vdW  Elec       q    Type
REMARK                         _______ _______ _______ _____ _____    ______ ____
ROOT
ATOM      1  CA  VAL A   1      -7.149  -1.868   5.560  0.00  0.00    +0.133 C 
ENDROOT
BRANCH   1   2
ATOM      2  CB  VAL A   1      -6.461  -1.077   6.716  0.00  0.00    +0.023 C 
ATOM      3  CG2 VAL A   1      -5.320  -1.887   7.316  0.00  0.00    +0.002 C 
ATOM      4  CG1 VAL A   1      -5.954   0.268   6.217  0.00  0.00    +0.002 C 
ENDBRANCH   1   2
BRANCH   1   5
ATOM      5  N   VAL A   1      -6.224  -2.093   4.439  0.00  0.00    -0.239 NA
ATOM      6  H   VAL A   1      -5.953  -1.289   3.837  0.00  0.00    +0.142 HD
ENDBRANCH   1   5
BRANCH   1   7
ATOM      7  C   VAL A   1      -8.408  -1.115   5.133  0.00  0.00    +0.224 C 
ATOM      8  O   VAL A   1      -8.462  -0.532   4.051  0.00  0.00    -0.287 OA
ENDBRANCH   1   7
TORSDOF 3
REMARK  Name = ../refined-set-2016/1d4k/1d4k_pocket.pdb
REMARK  229 active torsions:
REMARK  status: ('A' for Active; 'I' for Inactive)
REMARK    1  A    between atoms: _1  and  _3
REMARK    2  A    between atoms: _3  and  _4
REMARK    3  A    between atoms: _3  and  _6
REMARK    4  A    between atoms: _6  and  _7
REMARK    5  A    between atoms: _7  and  _8
REMARK    6  A    between atoms: _8  and  _9
REMARK    7  A    between atoms: _18  and  _20
REMARK    8  A    between atoms: _20  and  _21
REMARK    9  A    between atoms: _20  and  _23
REMARK   10  A    between atoms: _23  and  _24
REMARK   11  A    between atoms: _27  and  _29
REMARK   12  A    between atoms: _29  and  _30
REMARK   13  A    between atoms: _29  and  _32
REMARK   14  A    between atoms: _32  and  _33
REMARK   15  A    between atoms: _36  and  _38
REMARK   16  A    between atoms: _38  and  _39
REMARK   17  A    between atoms: _38  and  _41
REMARK   18  A    between atoms: _41  and  _42
REMARK   19  A    between atoms: _45  and  _47
REMARK   20  A    between atoms: _47  and  _48
REMARK   21  A    between atoms: _47  and  _50
REMARK   22  A    between atoms: _50  and  _51
REMARK   23  A    between atoms: _54  and  _56
REMARK   24  A    between atoms: _56  and  _57
REMARK   25  A    between atoms: _56  and  _59
REMARK   26  A    between atoms: _59  and  _60
REMARK   27  A    between atoms: _63  and  _65
REMARK   28  A    between atoms: _65  and  _66
REMARK   29  A    between atoms: _68  and  _70
REMARK   30  A    between atoms: _70  and  _71
REMARK   31  A    between atoms: _74  and  _76
REMARK   32  A    between atoms: _76  and  _77
REMARK   33  A    between atoms: _76  and  _79
REMARK   34  A    between atoms: _79  and  _80
REMARK   35  A    between atoms: _83  and  _85
REMARK   36  A    between atoms: _85  and  _86
REMARK   37  A    between atoms: _85  and  _88
REMARK   38  A    between atoms: _88  and  _89
REMARK   39  A    between atoms: _92  and  _94
REMARK   40  A    between atoms: _94  and  _95
REMARK   41  A    between atoms: _94  and  _97
REMARK   42  A    between atoms: _97  and  _98
REMARK   43  A    between atoms: _101  and  _103
REMARK   44  A    between atoms: _103  and  _104
REMARK   45  A    between atoms: _103  and  _106
REMARK   46  A    between atoms: _109  and  _111
REMARK   47  A    between atoms: _111  and  _112
REMARK   48  A    between atoms: _111  and  _114
REMARK   49  A    between atoms: _114  and  _115
REMARK   50  A    between atoms: _118  and  _120
REMARK   51  A    between atoms: _120  and  _121
REMARK   52  A    between atoms: _120  and  _123
REMARK   53  A    between atoms: _123  and  _124
REMARK   54  A    between atoms: _124  and  _125
REMARK   55  A    between atoms: _127  and  _129
REMARK   56  A    between atoms: _129  and  _130
REMARK   57  A    between atoms: _129  and  _132
REMARK   58  A    between atoms: _132  and  _133
REMARK   59  A    between atoms: _136  and  _138
REMARK   60  A    between atoms: _138  and  _139
REMARK   61  A    between atoms: _141  and  _143
REMARK   62  A    between atoms: _143  and  _144
REMARK   63  A    between atoms: _146  and  _148
REMARK   64  A    between atoms: _148  and  _149
REMARK   65  A    between atoms: _148  and  _151
REMARK   66  A    between atoms: _151  and  _152
REMARK   67  A    between atoms: _155  and  _157
REMARK   68  A    between atoms: _157  and  _158
REMARK   69  A    between atoms: _160  and  _162
REMARK   70  A    between atoms: _162  and  _163
REMARK   71  A    between atoms: _165  and  _167
REMARK   72  A    between atoms: _167  and  _168
REMARK   73  A    between atoms: _167  and  _170
REMARK   74  A    between atoms: _170  and  _171
REMARK   75  A    between atoms: _174  and  _176
REMARK   76  A    between atoms: _176  and  _177
REMARK   77  A    between atoms: _176  and  _179
REMARK   78  A    between atoms: _182  and  _184
REMARK   79  A    between atoms: _184  and  _185
REMARK   80  A    between atoms: _184  and  _187
REMARK   81  A    between atoms: _187  and  _188
REMARK   82  A    between atoms: _191  and  _193
REMARK   83  A    between atoms: _193  and  _194
REMARK   84  A    between atoms: _193  and  _196
REMARK   85  A    between atoms: _196  and  _197
REMARK   86  A    between atoms: _201  and  _202
REMARK   87  A    between atoms: _207  and  _209
REMARK   88  A    between atoms: _209  and  _210
REMARK   89  A    between atoms: _209  and  _212
REMARK   90  A    between atoms: _215  and  _217
REMARK   91  A    between atoms: _217  and  _218
REMARK   92  A    between atoms: _217  and  _220
REMARK   93  A    between atoms: _220  and  _221
REMARK   94  A    between atoms: _226  and  _228
REMARK   95  A    between atoms: _228  and  _229
REMARK   96  A    between atoms: _228  and  _231
REMARK   97  A    between atoms: _231  and  _232
REMARK   98  A    between atoms: _235  and  _237
REMARK   99  A    between atoms: _237  and  _238
REMARK  100  A    between atoms: _237  and  _240
REMARK  101  A    between atoms: _240  and  _241
REMARK  102  A    between atoms: _244  and  _246
REMARK  103  A    between atoms: _246  and  _247
REMARK  104  A    between atoms: _249  and  _251
REMARK  105  A    between atoms: _251  and  _252
REMARK  106  A    between atoms: _251  and  _254
REMARK  107  A    between atoms: _254  and  _255
REMARK  108  A    between atoms: _255  and  _256
REMARK  109  A    between atoms: _256  and  _257
REMARK  110  A    between atoms: _266  and  _268
REMARK  111  A    between atoms: _268  and  _269
REMARK  112  A    between atoms: _268  and  _271
REMARK  113  A    between atoms: _271  and  _272
REMARK  114  A    between atoms: _277  and  _279
REMARK  115  A    between atoms: _279  and  _280
REMARK  116  A    between atoms: _279  and  _282
REMARK  117  A    between atoms: _282  and  _283
REMARK  118  A    between atoms: _283  and  _284
REMARK  119  A    between atoms: _284  and  _285
REMARK  120  A    between atoms: _294  and  _296
REMARK  121  A    between atoms: _296  and  _297
REMARK  122  A    between atoms: _296  and  _299
REMARK  123  A    between atoms: _299  and  _300
REMARK  124  A    between atoms: _303  and  _305
REMARK  125  A    between atoms: _305  and  _306
REMARK  126  A    between atoms: _305  and  _308
REMARK  127  A    between atoms: _308  and  _309
REMARK  128  A    between atoms: _312  and  _314
REMARK  129  A    between atoms: _314  and  _315
REMARK  130  A    between atoms: _314  and  _317
REMARK  131  A    between atoms: _317  and  _318
REMARK  132  A    between atoms: _321  and  _323
REMARK  133  A    between atoms: _323  and  _324
REMARK  134  A    between atoms: _323  and  _326
REMARK  135  A    between atoms: _326  and  _327
REMARK  136  A    between atoms: _330  and  _332
REMARK  137  A    between atoms: _332  and  _333
REMARK  138  A    between atoms: _332  and  _335
REMARK  139  A    between atoms: _335  and  _336
REMARK  140  A    between atoms: _339  and  _341
REMARK  141  A    between atoms: _341  and  _342
REMARK  142  A    between atoms: _344  and  _346
REMARK  143  A    between atoms: _346  and  _347
REMARK  144  A    between atoms: _350  and  _352
REMARK  145  A    between atoms: _352  and  _353
REMARK  146  A    between atoms: _352  and  _355
REMARK  147  A    between atoms: _355  and  _356
REMARK  148  A    between atoms: _359  and  _361
REMARK  149  A    between atoms: _361  and  _362
REMARK  150  A    between atoms: _361  and  _364
REMARK  151  A    between atoms: _364  and  _365
REMARK  152  A    between atoms: _368  and  _370
REMARK  153  A    between atoms: _370  and  _371
REMARK  154  A    between atoms: _370  and  _373
REMARK  155  A    between atoms: _373  and  _374
REMARK  156  A    between atoms: _377  and  _379
REMARK  157  A    between atoms: _379  and  _380
REMARK  158  A    between atoms: _379  and  _382
REMARK  159  A    between atoms: _385  and  _387
REMARK  160  A    between atoms: _387  and  _388
REMARK  161  A    between atoms: _387  and  _390
REMARK  162  A    between atoms: _390  and  _391
REMARK  163  A    between atoms: _391  and  _392
REMARK  164  A    between atoms: _392  and  _393
REMARK  165  A    between atoms: _393  and  _394
REMARK  166  A    between atoms: _398  and  _400
REMARK  167  A    between atoms: _400  and  _401
REMARK  168  A    between atoms: _400  and  _403
REMARK  169  A    between atoms: _403  and  _404
REMARK  170  A    between atoms: _404  and  _405
REMARK  171  A    between atoms: _407  and  _409
REMARK  172  A    between atoms: _409  and  _410
REMARK  173  A    between atoms: _409  and  _412
REMARK  174  A    between atoms: _412  and  _413
REMARK  175  A    between atoms: _416  and  _418
REMARK  176  A    between atoms: _418  and  _419
REMARK  177  A    between atoms: _421  and  _423
REMARK  178  A    between atoms: _423  and  _424
REMARK  179  A    between atoms: _426  and  _428
REMARK  180  A    between atoms: _428  and  _429
REMARK  181  A    between atoms: _428  and  _431
REMARK  182  A    between atoms: _431  and  _432
REMARK  183  A    between atoms: _435  and  _437
REMARK  184  A    between atoms: _437  and  _438
REMARK  185  A    between atoms: _440  and  _442
REMARK  186  A    between atoms: _442  and  _443
REMARK  187  A    between atoms: _445  and  _447
REMARK  188  A    between atoms: _447  and  _448
REMARK  189  A    between atoms: _447  and  _450
REMARK  190  A    between atoms: _450  and  _451
REMARK  191  A    between atoms: _457  and  _459
REMARK  192  A    between atoms: _459  and  _460
REMARK  193  A    between atoms: _459  and  _462
REMARK  194  A    between atoms: _462  and  _463
REMARK  195  A    between atoms: _466  and  _468
REMARK  196  A    between atoms: _468  and  _469
REMARK  197  A    between atoms: _468  and  _471
REMARK  198  A    between atoms: _474  and  _476
REMARK  199  A    between atoms: _476  and  _477
REMARK  200  A    between atoms: _476  and  _479
REMARK  201  A    between atoms: _479  and  _480
REMARK  202  A    between atoms: _483  and  _485
REMARK  203  A    between atoms: _485  and  _486
REMARK  204  A    between atoms: _485  and  _488
REMARK  205  A    between atoms: _488  and  _489
REMARK  206  A    between atoms: _493  and  _494
REMARK  207  A    between atoms: _499  and  _501
REMARK  208  A    between atoms: _501  and  _502
REMARK  209  A    between atoms: _501  and  _504
REMARK  210  A    between atoms: _507  and  _509
REMARK  211  A    between atoms: _509  and  _510
REMARK  212  A    between atoms: _509  and  _512
REMARK  213  A    between atoms: _512  and  _513
REMARK  214  A    between atoms: _518  and  _520
REMARK  215  A    between atoms: _520  and  _521
REMARK  216  A    between atoms: _520  and  _523
REMARK  217  A    between atoms: _523  and  _524
REMARK  218  A    between atoms: _527  and  _529
REMARK  219  A    between atoms: _529  and  _530
REMARK  220  A    between atoms: _529  and  _532
REMARK  221  A    between atoms: _532  and  _533
REMARK  222  A    between atoms: _536  and  _538
REMARK  223  A    between atoms: _538  and  _539
REMARK  224  A    between atoms: _541  and  _543
REMARK  225  A    between atoms: _543  and  _544
REMARK  226  A    between atoms: _543  and  _546
REMARK  227  A    between atoms: _546  and  _547
REMARK  228  A    between atoms: _547  and  _548
REMARK  229  A    between atoms: _548  and  _549
REMARK                            x       y       z     vdW  Elec       q    Type
REMARK                         _______ _______ _______ _____ _____    ______ ____
ROOT
ATOM      1  CA  LEU A   1      -8.350   1.380  10.405  0.00  0.00    +0.133 C 
ENDROOT
BRANCH   1   2
ATOM      2  N   LEU A   1      -8.586   2.273  11.548  0.00  0.00    -0.239 NA
ATOM      3  H   LEU A   1      -7.838   2.384  12.262  0.00  0.00    +0.142 HD
ENDBRANCH   1   2
BRANCH   1   4
ATOM      4  C   LEU A   1      -8.645  -0.043  10.860  0.00  0.00    +0.224 C 
ATOM      5  O   LEU A   1      -8.290  -0.429  11.974  0.00  0.00    -0.287 OA
ENDBRANCH   1   4
BRANCH   1   6
ATOM      6  CB  LEU A   1      -6.891   1.479   9.953  0.00  0.00    +0.025 C 
BRANCH   6   7
ATOM      7  CG  LEU A   1      -6.329   2.881   9.712  0.00  0.00    +0.002 C 
ATOM      8  CD2 LEU A   1      -4.865   2.784   9.346  0.00  0.00    +0.000 C 
ATOM      9  CD1 LEU A   1      -7.102   3.592   8.617  0.00  0.00    +0.000 C 
ENDBRANCH   6   7
ENDBRANCH   1   6
TORSDOF 4
REMARK  Name = ../refined-set-2016/1d4k/1d4k_pocket.pdb
REMARK  229 active torsions:
REMARK  status: ('A' for Active; 'I' for Inactive)
REMARK    1  A    between atoms: _1  and  _3
REMARK    2  A    between atoms: _3  and  _4
REMARK    3  A    between atoms: _3  and  _6
REMARK    4  A    between atoms: _6  and  _7
REMARK    5  A    between atoms: _7  and  _8
REMARK    6  A    between atoms: _8  and  _9
REMARK    7  A    between atoms: _18  and  _20
REMARK    8  A    between atoms: _20  and  _21
REMARK    9  A    between atoms: _20  and  _23
REMARK   10  A    between atoms: _23  and  _24
REMARK   11  A    between atoms: _27  and  _29
REMARK   12  A    between atoms: _29  and  _30
REMARK   13  A    between atoms: _29  and  _32
REMARK   14  A    between atoms: _32  and  _33
REMARK   15  A    between atoms: _36  and  _38
REMARK   16  A    between atoms: _38  and  _39
REMARK   17  A    between atoms: _38  and  _41
REMARK   18  A    between atoms: _41  and  _42
REMARK   19  A    between atoms: _45  and  _47
REMARK   20  A    between atoms: _47  and  _48
REMARK   21  A    between atoms: _47  and  _50
REMARK   22  A    between atoms: _50  and  _51
REMARK   23  A    between atoms: _54  and  _56
REMARK   24  A    between atoms: _56  and  _57
REMARK   25  A    between atoms: _56  and  _59
REMARK   26  A    between atoms: _59  and  _60
REMARK   27  A    between atoms: _63  and  _65
REMARK   28  A    between atoms: _65  and  _66
REMARK   29  A    between atoms: _68  and  _70
REMARK   30  A    between atoms: _70  and  _71
REMARK   31  A    between atoms: _74  and  _76
REMARK   32  A    between atoms: _76  and  _77
REMARK   33  A    between atoms: _76  and  _79
REMARK   34  A    between atoms: _79  and  _80
REMARK   35  A    between atoms: _83  and  _85
REMARK   36  A    between atoms: _85  and  _86
REMARK   37  A    between atoms: _85  and  _88
REMARK   38  A    between atoms: _88  and  _89
REMARK   39  A    between atoms: _92  and  _94
REMARK   40  A    between atoms: _94  and  _95
REMARK   41  A    between atoms: _94  and  _97
REMARK   42  A    between atoms: _97  and  _98
REMARK   43  A    between atoms: _101  and  _103
REMARK   44  A    between atoms: _103  and  _104
REMARK   45  A    between atoms: _103  and  _106
REMARK   46  A    between atoms: _109  and  _111
REMARK   47  A    between atoms: _111  and  _112
REMARK   48  A    between atoms: _111  and  _114
REMARK   49  A    between atoms: _114  and  _115
REMARK   50  A    between atoms: _118  and  _120
REMARK   51  A    between atoms: _120  and  _121
REMARK   52  A    between atoms: _120  and  _123
REMARK   53  A    between atoms: _123  and  _124
REMARK   54  A    between atoms: _124  and  _125
REMARK   55  A    between atoms: _127  and  _129
REMARK   56  A    between atoms: _129  and  _130
REMARK   57  A    between atoms: _129  and  _132
REMARK   58  A    between atoms: _132  and  _133
REMARK   59  A    between atoms: _136  and  _138
REMARK   60  A    between atoms: _138  and  _139
REMARK   61  A    between atoms: _141  and  _143
REMARK   62  A    between atoms: _143  and  _144
REMARK   63  A    between atoms: _146  and  _148
REMARK   64  A    between atoms: _148  and  _149
REMARK   65  A    between atoms: _148  and  _151
REMARK   66  A    between atoms: _151  and  _152
REMARK   67  A    between atoms: _155  and  _157
REMARK   68  A    between atoms: _157  and  _158
REMARK   69  A    between atoms: _160  and  _162
REMARK   70  A    between atoms: _162  and  _163
REMARK   71  A    between atoms: _165  and  _167
REMARK   72  A    between atoms: _167  and  _168
REMARK   73  A    between atoms: _167  and  _170
REMARK   74  A    between atoms: _170  and  _171
REMARK   75  A    between atoms: _174  and  _176
REMARK   76  A    between atoms: _176  and  _177
REMARK   77  A    between atoms: _176  and  _179
REMARK   78  A    between atoms: _182  and  _184
REMARK   79  A    between atoms: _184  and  _185
REMARK   80  A    between atoms: _184  and  _187
REMARK   81  A    between atoms: _187  and  _188
REMARK   82  A    between atoms: _191  and  _193
REMARK   83  A    between atoms: _193  and  _194
REMARK   84  A    between atoms: _193  and  _196
REMARK   85  A    between atoms: _196  and  _197
REMARK   86  A    between atoms: _201  and  _202
REMARK   87  A    between atoms: _207  and  _209
REMARK   88  A    between atoms: _209  and  _210
REMARK   89  A    between atoms: _209  and  _212
REMARK   90  A    between atoms: _215  and  _217
REMARK   91  A    between atoms: _217  and  _218
REMARK   92  A    between atoms: _217  and  _220
REMARK   93  A    between atoms: _220  and  _221
REMARK   94  A    between atoms: _226  and  _228
REMARK   95  A    between atoms: _228  and  _229
REMARK   96  A    between atoms: _228  and  _231
REMARK   97  A    between atoms: _231  and  _232
REMARK   98  A    between atoms: _235  and  _237
REMARK   99  A    between atoms: _237  and  _238
REMARK  100  A    between atoms: _237  and  _240
REMARK  101  A    between atoms: _240  and  _241
REMARK  102  A    between atoms: _244  and  _246
REMARK  103  A    between atoms: _246  and  _247
REMARK  104  A    between atoms: _249  and  _251
REMARK  105  A    between atoms: _251  and  _252
REMARK  106  A    between atoms: _251  and  _254
REMARK  107  A    between atoms: _254  and  _255
REMARK  108  A    between atoms: _255  and  _256
REMARK  109  A    between atoms: _256  and  _257
REMARK  110  A    between atoms: _266  and  _268
REMARK  111  A    between atoms: _268  and  _269
REMARK  112  A    between atoms: _268  and  _271
REMARK  113  A    between atoms: _271  and  _272
REMARK  114  A    between atoms: _277  and  _279
REMARK  115  A    between atoms: _279  and  _280
REMARK  116  A    between atoms: _279  and  _282
REMARK  117  A    between atoms: _282  and  _283
REMARK  118  A    between atoms: _283  and  _284
REMARK  119  A    between atoms: _284  and  _285
REMARK  120  A    between atoms: _294  and  _296
REMARK  121  A    between atoms: _296  and  _297
REMARK  122  A    between atoms: _296  and  _299
REMARK  123  A    between atoms: _299  and  _300
REMARK  124  A    between atoms: _303  and  _305
REMARK  125  A    between atoms: _305  and  _306
REMARK  126  A    between atoms: _305  and  _308
REMARK  127  A    between atoms: _308  and  _309
REMARK  128  A    between atoms: _312  and  _314
REMARK  129  A    between atoms: _314  and  _315
REMARK  130  A    between atoms: _314  and  _317
REMARK  131  A    between atoms: _317  and  _318
REMARK  132  A    between atoms: _321  and  _323
REMARK  133  A    between atoms: _323  and  _324
REMARK  134  A    between atoms: _323  and  _326
REMARK  135  A    between atoms: _326  and  _327
REMARK  136  A    between atoms: _330  and  _332
REMARK  137  A    between atoms: _332  and  _333
REMARK  138  A    between atoms: _332  and  _335
REMARK  139  A    between atoms: _335  and  _336
REMARK  140  A    between atoms: _339  and  _341
REMARK  141  A    between atoms: _341  and  _342
REMARK  142  A    between atoms: _344  and  _346
REMARK  143  A    between atoms: _346  and  _347
REMARK  144  A    between atoms: _350  and  _352
REMARK  145  A    between atoms: _352  and  _353
REMARK  146  A    between atoms: _352  and  _355
REMARK  147  A    between atoms: _355  and  _356
REMARK  148  A    between atoms: _359  and  _361
REMARK  149  A    between atoms: _361  and  _362
REMARK  150  A    between atoms: _361  and  _364
REMARK  151  A    between atoms: _364  and  _365
REMARK  152  A    between atoms: _368  and  _370
REMARK  153  A    between atoms: _370  and  _371
REMARK  154  A    between atoms: _370  and  _373
REMARK  155  A    between atoms: _373  and  _374
REMARK  156  A    between atoms: _377  and  _379
REMARK  157  A    between atoms: _379  and  _380
REMARK  158  A    between atoms: _379  and  _382
REMARK  159  A    between atoms: _385  and  _387
REMARK  160  A    between atoms: _387  and  _388
REMARK  161  A    between atoms: _387  and  _390
REMARK  162  A    between atoms: _390  and  _391
REMARK  163  A    between atoms: _391  and  _392
REMARK  164  A    between atoms: _392  and  _393
REMARK  165  A    between atoms: _393  and  _394
REMARK  166  A    between atoms: _398  and  _400
REMARK  167  A    between atoms: _400  and  _401
REMARK  168  A    between atoms: _400  and  _403
REMARK  169  A    between atoms: _403  and  _404
REMARK  170  A    between atoms: _404  and  _405
REMARK  171  A    between atoms: _407  and  _409
REMARK  172  A    between atoms: _409  and  _410
REMARK  173  A    between atoms: _409  and  _412
REMARK  174  A    between atoms: _412  and  _413
REMARK  175  A    between atoms: _416  and  _418
REMARK  176  A    between atoms: _418  and  _419
REMARK  177  A    between atoms: _421  and  _423
REMARK  178  A    between atoms: _423  and  _424
REMARK  179  A    between atoms: _426  and  _428
REMARK  180  A    between atoms: _428  and  _429
REMARK  181  A    between atoms: _428  and  _431
REMARK  182  A    between atoms: _431  and  _432
REMARK  183  A    between atoms: _435  and  _437
REMARK  184  A    between atoms: _437  and  _438
REMARK  185  A    between atoms: _440  and  _442
REMARK  186  A    between atoms: _442  and  _443
REMARK  187  A    between atoms: _445  and  _447
REMARK  188  A    between atoms: _447  and  _448
REMARK  189  A    between atoms: _447  and  _450
REMARK  190  A    between atoms: _450  and  _451
REMARK  191  A    between atoms: _457  and  _459
REMARK  192  A    between atoms: _459  and  _460
REMARK  193  A    between atoms: _459  and  _462
REMARK  194  A    between atoms: _462  and  _463
REMARK  195  A    between atoms: _466  and  _468
REMARK  196  A    between atoms: _468  and  _469
REMARK  197  A    between atoms: _468  and  _471
REMARK  198  A    between atoms: _474  and  _476
REMARK  199  A    between atoms: _476  and  _477
REMARK  200  A    between atoms: _476  and  _479
REMARK  201  A    between atoms: _479  and  _480
REMARK  202  A    between atoms: _483  and  _485
REMARK  203  A    between atoms: _485  and  _486
REMARK  204  A    between atoms: _485  and  _488
REMARK  205  A    between atoms: _488  and  _489
REMARK  206  A    between atoms: _493  and  _494
REMARK  207  A    between atoms: _499  and  _501
REMARK  208  A    between atoms: _501  and  _502
REMARK  209  A    between atoms: _501  and  _504
REMARK  210  A    between atoms: _507  and  _509
REMARK  211  A    between atoms: _509  and  _510
REMARK  212  A    between atoms: _509  and  _512
REMARK  213  A    between atoms: _512  and  _513
REMARK  214  A    between atoms: _518  and  _520
REMARK  215  A    between atoms: _520  and  _521
REMARK  216  A    between atoms: _520  and  _523
REMARK  217  A    between atoms: _523  and  _524
REMARK  218  A    between atoms: _527  and  _529
REMARK  219  A    between atoms: _529  and  _530
REMARK  220  A    between atoms: _529  and  _532
REMARK  221  A    between atoms: _532  and  _533
REMARK  222  A    between atoms: _536  and  _538
REMARK  223  A    between atoms: _538  and  _539
REMARK  224  A    between atoms: _541  and  _543
REMARK  225  A    between atoms: _543  and  _544
REMARK  226  A    between atoms: _543  and  _546
REMARK  227  A    between atoms: _546  and  _547
REMARK  228  A    between atoms: _547  and  _548
REMARK  229  A    between atoms: _548  and  _549
REMARK                            x       y       z     vdW  Elec       q    Type
REMARK                         _______ _______ _______ _____ _____    ______ ____
ROOT
ATOM      1  C   ILE A   5      -3.724   0.516  18.134  0.00  0.00    +0.241 C 
ATOM      2  N   ILE A   6      -3.368   1.239  19.194  0.00  0.00    -0.297 N 
ATOM      3  H   ILE A   6      -2.733   0.813  19.899  0.00  0.00    +0.150 HD
ATOM      4  O   ILE A   5      -4.539   0.898  17.298  0.00  0.00    -0.273 OA
ENDROOT
BRANCH   2   5
ATOM      5  CA  ILE A   6      -3.836   2.614  19.407  0.00  0.00    +0.149 C 
BRANCH   5   6
ATOM      6  C   ILE A   6      -2.625   3.466  19.025  0.00  0.00    +0.241 C 
ATOM      7  O   ILE A   6      -1.579   3.402  19.681  0.00  0.00    -0.273 OA
ATOM      8  N   GLY A   7      -2.753   4.208  17.927  0.00  0.00    -0.295 N 
ATOM      9  H   GLY A   7      -3.651   4.193  17.402  0.00  0.00    +0.150 HD
BRANCH   8  10
ATOM     10  CA  GLY A   7      -1.662   5.038  17.450  0.00  0.00    +0.176 C 
BRANCH  10  11
ATOM     11  C   GLY A   7      -1.705   6.471  17.930  0.00  0.00    +0.243 C 
ATOM     12  O   GLY A   7      -2.585   6.844  18.702  0.00  0.00    -0.273 OA
ATOM     13  N   ARG A   8      -0.765   7.279  17.444  0.00  0.00    -0.297 N 
ATOM     14  H   ARG A   8      -0.074   6.895  16.768  0.00  0.00    +0.150 HD
BRANCH  13  15
ATOM     15  CA  ARG A   8      -0.669   8.697  17.830  0.00  0.00    +0.149 C 
BRANCH  15  16
ATOM     16  C   ARG A   8      -1.905   9.539  17.525  0.00  0.00    +0.241 C 
ATOM     17  O   ARG A   8      -2.165  10.517  18.219  0.00  0.00    -0.273 OA
ATOM     18  N   ASN A   9      -2.674   9.165  16.505  0.00  0.00    -0.298 N 
ATOM     19  H   ASN A   9      -2.422   8.325  15.946  0.00  0.00    +0.150 HD
BRANCH  18  20
ATOM     20  CA  ASN A   9      -3.881   9.938  16.165  0.00  0.00    +0.146 C 
BRANCH  20  21
ATOM     21  C   ASN A   9      -4.874   9.978  17.332  0.00  0.00    +0.227 C 
ATOM     22  O   ASN A   9      -5.538  10.991  17.546  0.00  0.00    -0.286 OA
ENDBRANCH  20  21
BRANCH  20  23
ATOM     23  CB  ASN A   9      -4.550   9.401  14.889  0.00  0.00    +0.112 C 
BRANCH  23  24
ATOM     24  CG  ASN A   9      -5.189   8.043  15.084  0.00  0.00    +0.222 C 
ATOM     25  OD1 ASN A   9      -4.536   7.093  15.497  0.00  0.00    -0.275 OA
ATOM     26  ND2 ASN A   9      -6.475   7.947  14.777  0.00  0.00    -0.329 N 
ATOM     27 HD21 ASN A   9      -6.969   7.038  14.884  0.00  0.00    +0.145 HD
ATOM     28 HD22 ASN A   9      -6.990   8.781  14.429  0.00  0.00    +0.145 HD
ENDBRANCH  23  24
ENDBRANCH  20  23
ENDBRANCH  18  20
ENDBRANCH  15  16
BRANCH  15  29
ATOM     29  CB  ARG A   8       0.569   9.347  17.209  0.00  0.00    +0.033 C 
BRANCH  29  30
ATOM     30  CG  ARG A   8       1.886   8.773  17.708  0.00  0.00    +0.045 C 
BRANCH  30  31
ATOM     31  CD  ARG A   8       3.081   9.545  17.165  0.00  0.00    +0.174 C 
BRANCH  31  32
ATOM     32  NE  ARG A   8       3.145   9.516  15.693  0.00  0.00    -0.265 N 
ATOM     33  HE  ARG A   8       3.486   8.644  15.240  0.00  0.00    +0.259 HD
ATOM     34  CZ  ARG A   8       2.796  10.529  14.904  0.00  0.00    +0.342 C 
ATOM     35  NH2 ARG A   8       2.353  11.667  15.426  0.00  0.00    -0.292 N 
ATOM     36 HH21 ARG A   8       2.277  11.771  16.458  0.00  0.00    +0.255 HD
ATOM     37 HH22 ARG A   8       2.082  12.454  14.803  0.00  0.00    +0.255 HD
ATOM     38  NH1 ARG A   8       2.880  10.402  13.588  0.00  0.00    -0.292 N 
ATOM     39 HH11 ARG A   8       3.219   9.511  13.172  0.00  0.00    +0.255 HD
ATOM     40 HH12 ARG A   8       2.607  11.193  12.971  0.00  0.00    +0.255 HD
ENDBRANCH  31  32
ENDBRANCH  30  31
ENDBRANCH  29  30
ENDBRANCH  15  29
ENDBRANCH  13  15
ENDBRANCH  10  11
ENDBRANCH   8  10
ENDBRANCH   5   6
BRANCH   5  41
ATOM     41  CB  ILE A   6      -4.216   2.877  20.884  0.00  0.00    +0.027 C 
ATOM     42  CG2 ILE A   6      -4.615   4.337  21.075  0.00  0.00    +0.002 C 
BRANCH  41  43
ATOM     43  CG1 ILE A   6      -5.354   1.944  21.321  0.00  0.00    +0.002 C 
ATOM     44  CD1 ILE A   6      -6.633   2.073  20.497  0.00  0.00    +0.000 C 
ENDBRANCH  41  43
ENDBRANCH   5  41
ENDBRANCH   2   5
BRANCH   1  45
ATOM     45  CA  ILE A   5      -3.097  -0.866  18.040  0.00  0.00    +0.149 C 
BRANCH  45  48
ATOM     46  C   ASN A   4      -4.193  -2.972  18.618  0.00  0.00    +0.241 C 
ATOM     47  O   ASN A   4      -3.553  -3.080  19.663  0.00  0.00    -0.273 OA
ATOM     48  N   ILE A   5      -4.060  -1.945  17.788  0.00  0.00    -0.297 N 
ATOM     49  H   ILE A   5      -4.654  -1.903  16.936  0.00  0.00    +0.150 HD
BRANCH  46  50
ATOM     50  CA  ASN A   4      -5.192  -4.040  18.204  0.00  0.00    +0.158 C 
BRANCH  50  52
ATOM     51  C   VAL A   3      -3.491  -5.639  17.459  0.00  0.00    +0.241 C 
ATOM     52  N   ASN A   4      -4.502  -5.338  18.271  0.00  0.00    -0.297 N 
ATOM     53  H   ASN A   4      -4.813  -6.040  18.973  0.00  0.00    +0.150 HD
ATOM     54  O   VAL A   3      -3.100  -4.882  16.570  0.00  0.00    -0.273 OA
BRANCH  51  55
ATOM     55  CA  VAL A   3      -2.844  -7.013  17.657  0.00  0.00    +0.149 C 
BRANCH  55  58
ATOM     56  C   PRO A   2      -2.179  -8.822  16.133  0.00  0.00    +0.241 C 
ATOM     57  O   PRO A   2      -2.603  -9.697  16.888  0.00  0.00    -0.273 OA
ATOM     58  N   VAL A   3      -2.265  -7.519  16.401  0.00  0.00    -0.297 N 
ATOM     59  H   VAL A   3      -1.911  -6.837  15.700  0.00  0.00    +0.150 HD
BRANCH  56  63
ATOM     60  C   THR A   1      -3.112  -7.934  13.380  0.00  0.00    +0.244 C 
ATOM     61  O   THR A   1      -4.080  -8.511  13.878  0.00  0.00    -0.273 OA
ATOM     62  N   PRO A   2      -1.852  -8.203  13.759  0.00  0.00    -0.272 N 
ATOM     63  CA  PRO A   2      -1.539  -9.189  14.800  0.00  0.00    +0.152 C 
ATOM     64  CB  PRO A   2      -0.016  -9.111  14.897  0.00  0.00    +0.031 C 
ATOM     65  CG  PRO A   2       0.394  -8.688  13.523  0.00  0.00    +0.024 C 
ATOM     66  CD  PRO A   2      -0.619  -7.635  13.187  0.00  0.00    +0.094 C 
BRANCH  60  67
ATOM     67  CA  THR A   1      -3.306  -6.887  12.287  0.00  0.00    +0.172 C 
BRANCH  67  68
ATOM     68  CB  THR A   1      -3.569  -5.496  12.929  0.00  0.00    +0.135 C 
ATOM     69  CG2 THR A   1      -4.850  -5.504  13.759  0.00  0.00    +0.034 C 
BRANCH  68  70
ATOM     70  OG1 THR A   1      -2.464  -5.135  13.764  0.00  0.00    -0.383 OA
ATOM     71  HG1 THR A   1      -2.356  -5.812  14.478  0.00  0.00    +0.210 HD
ENDBRANCH  68  70
ENDBRANCH  67  68
BRANCH  67  72
ATOM     72  N   THR A   1      -4.400  -7.271  11.384  0.00  0.00    -0.236 NA
ATOM     73  H   THR A   1      -5.383  -7.116  11.686  0.00  0.00    +0.142 HD
ENDBRANCH  67  72
ENDBRANCH  60  67
ENDBRANCH  56  63
ENDBRANCH  55  58
BRANCH  55  74
ATOM     74  CB  VAL A   3      -1.747  -6.918  18.761  0.00  0.00    +0.027 C 
ATOM     75  CG2 VAL A   3      -2.365  -6.618  20.123  0.00  0.00    +0.002 C 
ATOM     76  CG1 VAL A   3      -0.705  -5.866  18.391  0.00  0.00    +0.002 C 
ENDBRANCH  55  74
ENDBRANCH  51  55
ENDBRANCH  50  52
BRANCH  50  77
ATOM     77  CB  ASN A   4      -6.408  -4.027  19.132  0.00  0.00    +0.114 C 
BRANCH  77  78
ATOM     78  CG  ASN A   4      -7.470  -5.023  18.709  0.00  0.00    +0.222 C 
ATOM     79  ND2 ASN A   4      -8.036  -5.737  19.674  0.00  0.00    -0.329 N 
ATOM     80 HD21 ASN A   4      -7.750  -5.593  20.663  0.00  0.00    +0.145 HD
ATOM     81 HD22 ASN A   4      -8.766  -6.440  19.441  0.00  0.00    +0.145 HD
ATOM     82  OD1 ASN A   4      -7.771  -5.153  17.524  0.00  0.00    -0.275 OA
ENDBRANCH  77  78
ENDBRANCH  50  77
ENDBRANCH  46  50
ENDBRANCH  45  48
BRANCH  45  83
ATOM     83  CB  ILE A   5      -2.019  -0.853  16.928  0.00  0.00    +0.027 C 
ATOM     84  CG2 ILE A   5      -1.150   0.396  17.013  0.00  0.00    +0.002 C 
BRANCH  83  85
ATOM     85  CG1 ILE A   5      -1.167  -2.119  17.014  0.00  0.00    +0.002 C 
ATOM     86  CD1 ILE A   5      -0.301  -2.342  15.804  0.00  0.00    +0.000 C 
ENDBRANCH  83  85
ENDBRANCH  45  83
ENDBRANCH   1  45
TORSDOF 32
REMARK  Name = ../refined-set-2016/1d4k/1d4k_pocket.pdb
REMARK  229 active torsions:
REMARK  status: ('A' for Active; 'I' for Inactive)
REMARK    1  A    between atoms: _1  and  _3
REMARK    2  A    between atoms: _3  and  _4
REMARK    3  A    between atoms: _3  and  _6
REMARK    4  A    between atoms: _6  and  _7
REMARK    5  A    between atoms: _7  and  _8
REMARK    6  A    between atoms: _8  and  _9
REMARK    7  A    between atoms: _18  and  _20
REMARK    8  A    between atoms: _20  and  _21
REMARK    9  A    between atoms: _20  and  _23
REMARK   10  A    between atoms: _23  and  _24
REMARK   11  A    between atoms: _27  and  _29
REMARK   12  A    between atoms: _29  and  _30
REMARK   13  A    between atoms: _29  and  _32
REMARK   14  A    between atoms: _32  and  _33
REMARK   15  A    between atoms: _36  and  _38
REMARK   16  A    between atoms: _38  and  _39
REMARK   17  A    between atoms: _38  and  _41
REMARK   18  A    between atoms: _41  and  _42
REMARK   19  A    between atoms: _45  and  _47
REMARK   20  A    between atoms: _47  and  _48
REMARK   21  A    between atoms: _47  and  _50
REMARK   22  A    between atoms: _50  and  _51
REMARK   23  A    between atoms: _54  and  _56
REMARK   24  A    between atoms: _56  and  _57
REMARK   25  A    between atoms: _56  and  _59
REMARK   26  A    between atoms: _59  and  _60
REMARK   27  A    between atoms: _63  and  _65
REMARK   28  A    between atoms: _65  and  _66
REMARK   29  A    between atoms: _68  and  _70
REMARK   30  A    between atoms: _70  and  _71
REMARK   31  A    between atoms: _74  and  _76
REMARK   32  A    between atoms: _76  and  _77
REMARK   33  A    between atoms: _76  and  _79
REMARK   34  A    between atoms: _79  and  _80
REMARK   35  A    between atoms: _83  and  _85
REMARK   36  A    between atoms: _85  and  _86
REMARK   37  A    between atoms: _85  and  _88
REMARK   38  A    between atoms: _88  and  _89
REMARK   39  A    between atoms: _92  and  _94
REMARK   40  A    between atoms: _94  and  _95
REMARK   41  A    between atoms: _94  and  _97
REMARK   42  A    between atoms: _97  and  _98
REMARK   43  A    between atoms: _101  and  _103
REMARK   44  A    between atoms: _103  and  _104
REMARK   45  A    between atoms: _103  and  _106
REMARK   46  A    between atoms: _109  and  _111
REMARK   47  A    between atoms: _111  and  _112
REMARK   48  A    between atoms: _111  and  _114
REMARK   49  A    between atoms: _114  and  _115
REMARK   50  A    between atoms: _118  and  _120
REMARK   51  A    between atoms: _120  and  _121
REMARK   52  A    between atoms: _120  and  _123
REMARK   53  A    between atoms: _123  and  _124
REMARK   54  A    between atoms: _124  and  _125
REMARK   55  A    between atoms: _127  and  _129
REMARK   56  A    between atoms: _129  and  _130
REMARK   57  A    between atoms: _129  and  _132
REMARK   58  A    between atoms: _132  and  _133
REMARK   59  A    between atoms: _136  and  _138
REMARK   60  A    between atoms: _138  and  _139
REMARK   61  A    between atoms: _141  and  _143
REMARK   62  A    between atoms: _143  and  _144
REMARK   63  A    between atoms: _146  and  _148
REMARK   64  A    between atoms: _148  and  _149
REMARK   65  A    between atoms: _148  and  _151
REMARK   66  A    between atoms: _151  and  _152
REMARK   67  A    between atoms: _155  and  _157
REMARK   68  A    between atoms: _157  and  _158
REMARK   69  A    between atoms: _160  and  _162
REMARK   70  A    between atoms: _162  and  _163
REMARK   71  A    between atoms: _165  and  _167
REMARK   72  A    between atoms: _167  and  _168
REMARK   73  A    between atoms: _167  and  _170
REMARK   74  A    between atoms: _170  and  _171
REMARK   75  A    between atoms: _174  and  _176
REMARK   76  A    between atoms: _176  and  _177
REMARK   77  A    between atoms: _176  and  _179
REMARK   78  A    between atoms: _182  and  _184
REMARK   79  A    between atoms: _184  and  _185
REMARK   80  A    between atoms: _184  and  _187
REMARK   81  A    between atoms: _187  and  _188
REMARK   82  A    between atoms: _191  and  _193
REMARK   83  A    between atoms: _193  and  _194
REMARK   84  A    between atoms: _193  and  _196
REMARK   85  A    between atoms: _196  and  _197
REMARK   86  A    between atoms: _201  and  _202
REMARK   87  A    between atoms: _207  and  _209
REMARK   88  A    between atoms: _209  and  _210
REMARK   89  A    between atoms: _209  and  _212
REMARK   90  A    between atoms: _215  and  _217
REMARK   91  A    between atoms: _217  and  _218
REMARK   92  A    between atoms: _217  and  _220
REMARK   93  A    between atoms: _220  and  _221
REMARK   94  A    between atoms: _226  and  _228
REMARK   95  A    between atoms: _228  and  _229
REMARK   96  A    between atoms: _228  and  _231
REMARK   97  A    between atoms: _231  and  _232
REMARK   98  A    between atoms: _235  and  _237
REMARK   99  A    between atoms: _237  and  _238
REMARK  100  A    between atoms: _237  and  _240
REMARK  101  A    between atoms: _240  and  _241
REMARK  102  A    between atoms: _244  and  _246
REMARK  103  A    between atoms: _246  and  _247
REMARK  104  A    between atoms: _249  and  _251
REMARK  105  A    between atoms: _251  and  _252
REMARK  106  A    between atoms: _251  and  _254
REMARK  107  A    between atoms: _254  and  _255
REMARK  108  A    between atoms: _255  and  _256
REMARK  109  A    between atoms: _256  and  _257
REMARK  110  A    between atoms: _266  and  _268
REMARK  111  A    between atoms: _268  and  _269
REMARK  112  A    between atoms: _268  and  _271
REMARK  113  A    between atoms: _271  and  _272
REMARK  114  A    between atoms: _277  and  _279
REMARK  115  A    between atoms: _279  and  _280
REMARK  116  A    between atoms: _279  and  _282
REMARK  117  A    between atoms: _282  and  _283
REMARK  118  A    between atoms: _283  and  _284
REMARK  119  A    between atoms: _284  and  _285
REMARK  120  A    between atoms: _294  and  _296
REMARK  121  A    between atoms: _296  and  _297
REMARK  122  A    between atoms: _296  and  _299
REMARK  123  A    between atoms: _299  and  _300
REMARK  124  A    between atoms: _303  and  _305
REMARK  125  A    between atoms: _305  and  _306
REMARK  126  A    between atoms: _305  and  _308
REMARK  127  A    between atoms: _308  and  _309
REMARK  128  A    between atoms: _312  and  _314
REMARK  129  A    between atoms: _314  and  _315
REMARK  130  A    between atoms: _314  and  _317
REMARK  131  A    between atoms: _317  and  _318
REMARK  132  A    between atoms: _321  and  _323
REMARK  133  A    between atoms: _323  and  _324
REMARK  134  A    between atoms: _323  and  _326
REMARK  135  A    between atoms: _326  and  _327
REMARK  136  A    between atoms: _330  and  _332
REMARK  137  A    between atoms: _332  and  _333
REMARK  138  A    between atoms: _332  and  _335
REMARK  139  A    between atoms: _335  and  _336
REMARK  140  A    between atoms: _339  and  _341
REMARK  141  A    between atoms: _341  and  _342
REMARK  142  A    between atoms: _344  and  _346
REMARK  143  A    between atoms: _346  and  _347
REMARK  144  A    between atoms: _350  and  _352
REMARK  145  A    between atoms: _352  and  _353
REMARK  146  A    between atoms: _352  and  _355
REMARK  147  A    between atoms: _355  and  _356
REMARK  148  A    between atoms: _359  and  _361
REMARK  149  A    between atoms: _361  and  _362
REMARK  150  A    between atoms: _361  and  _364
REMARK  151  A    between atoms: _364  and  _365
REMARK  152  A    between atoms: _368  and  _370
REMARK  153  A    between atoms: _370  and  _371
REMARK  154  A    between atoms: _370  and  _373
REMARK  155  A    between atoms: _373  and  _374
REMARK  156  A    between atoms: _377  and  _379
REMARK  157  A    between atoms: _379  and  _380
REMARK  158  A    between atoms: _379  and  _382
REMARK  159  A    between atoms: _385  and  _387
REMARK  160  A    between atoms: _387  and  _388
REMARK  161  A    between atoms: _387  and  _390
REMARK  162  A    between atoms: _390  and  _391
REMARK  163  A    between atoms: _391  and  _392
REMARK  164  A    between atoms: _392  and  _393
REMARK  165  A    between atoms: _393  and  _394
REMARK  166  A    between atoms: _398  and  _400
REMARK  167  A    between atoms: _400  and  _401
REMARK  168  A    between atoms: _400  and  _403
REMARK  169  A    between atoms: _403  and  _404
REMARK  170  A    between atoms: _404  and  _405
REMARK  171  A    between atoms: _407  and  _409
REMARK  172  A    between atoms: _409  and  _410
REMARK  173  A    between atoms: _409  and  _412
REMARK  174  A    between atoms: _412  and  _413
REMARK  175  A    between atoms: _416  and  _418
REMARK  176  A    between atoms: _418  and  _419
REMARK  177  A    between atoms: _421  and  _423
REMARK  178  A    between atoms: _423  and  _424
REMARK  179  A    between atoms: _426  and  _428
REMARK  180  A    between atoms: _428  and  _429
REMARK  181  A    between atoms: _428  and  _431
REMARK  182  A    between atoms: _431  and  _432
REMARK  183  A    between atoms: _435  and  _437
REMARK  184  A    between atoms: _437  and  _438
REMARK  185  A    between atoms: _440  and  _442
REMARK  186  A    between atoms: _442  and  _443
REMARK  187  A    between atoms: _445  and  _447
REMARK  188  A    between atoms: _447  and  _448
REMARK  189  A    between atoms: _447  and  _450
REMARK  190  A    between atoms: _450  and  _451
REMARK  191  A    between atoms: _457  and  _459
REMARK  192  A    between atoms: _459  and  _460
REMARK  193  A    between atoms: _459  and  _462
REMARK  194  A    between atoms: _462  and  _463
REMARK  195  A    between atoms: _466  and  _468
REMARK  196  A    between atoms: _468  and  _469
REMARK  197  A    between atoms: _468  and  _471
REMARK  198  A    between atoms: _474  and  _476
REMARK  199  A    between atoms: _476  and  _477
REMARK  200  A    between atoms: _476  and  _479
REMARK  201  A    between atoms: _479  and  _480
REMARK  202  A    between atoms: _483  and  _485
REMARK  203  A    between atoms: _485  and  _486
REMARK  204  A    between atoms: _485  and  _488
REMARK  205  A    between atoms: _488  and  _489
REMARK  206  A    between atoms: _493  and  _494
REMARK  207  A    between atoms: _499  and  _501
REMARK  208  A    between atoms: _501  and  _502
REMARK  209  A    between atoms: _501  and  _504
REMARK  210  A    between atoms: _507  and  _509
REMARK  211  A    between atoms: _509  and  _510
REMARK  212  A    between atoms: _509  and  _512
REMARK  213  A    between atoms: _512  and  _513
REMARK  214  A    between atoms: _518  and  _520
REMARK  215  A    between atoms: _520  and  _521
REMARK  216  A    between atoms: _520  and  _523
REMARK  217  A    between atoms: _523  and  _524
REMARK  218  A    between atoms: _527  and  _529
REMARK  219  A    between atoms: _529  and  _530
REMARK  220  A    between atoms: _529  and  _532
REMARK  221  A    between atoms: _532  and  _533
REMARK  222  A    between atoms: _536  and  _538
REMARK  223  A    between atoms: _538  and  _539
REMARK  224  A    between atoms: _541  and  _543
REMARK  225  A    between atoms: _543  and  _544
REMARK  226  A    between atoms: _543  and  _546
REMARK  227  A    between atoms: _546  and  _547
REMARK  228  A    between atoms: _547  and  _548
REMARK  229  A    between atoms: _548  and  _549
REMARK                            x       y       z     vdW  Elec       q    Type
REMARK                         _______ _______ _______ _____ _____    ______ ____
ROOT
ATOM      1  NE  ARG A   1       6.424   8.573  11.234  0.00  0.00    -0.265 N 
ATOM      2  HE  ARG A   1       5.404   8.743  11.344  0.00  0.00    +0.259 HD
ATOM      3  CZ  ARG A   1       6.818   7.804  10.223  0.00  0.00    +0.342 C 
ATOM      4  NH2 ARG A   1       8.108   7.552  10.033  0.00  0.00    -0.292 N 
ATOM      5 HH21 ARG A   1       8.817   7.957  10.677  0.00  0.00    +0.255 HD
ATOM      6 HH22 ARG A   1       8.409   6.950   9.240  0.00  0.00    +0.255 HD
ATOM      7  NH1 ARG A   1       5.918   7.270   9.408  0.00  0.00    -0.292 N 
ATOM      8 HH11 ARG A   1       4.906   7.453   9.560  0.00  0.00    +0.255 HD
ATOM      9 HH12 ARG A   1       6.225   6.668   8.617  0.00  0.00    +0.255 HD
ENDROOT
BRANCH   1  10
ATOM     10  CD  ARG A   1       7.331   9.198  12.205  0.00  0.00    +0.174 C 
BRANCH  10  11
ATOM     11  CG  ARG A   1       6.569   9.791  13.371  0.00  0.00    +0.045 C 
BRANCH  11  12
ATOM     12  CB  ARG A   1       7.517  10.306  14.416  0.00  0.00    +0.029 C 
BRANCH  12  13
ATOM     13  CA  ARG A   1       6.835  10.929  15.631  0.00  0.00    +0.133 C 
BRANCH  13  14
ATOM     14  N   ARG A   1       6.120  12.152  15.237  0.00  0.00    -0.239 NA
ATOM     15  H   ARG A   1       6.137  12.453  14.242  0.00  0.00    +0.142 HD
ENDBRANCH  13  14
BRANCH  13  16
ATOM     16  C   ARG A   1       7.876  11.245  16.702  0.00  0.00    +0.224 C 
ATOM     17  O   ARG A   1       8.634  12.208  16.573  0.00  0.00    -0.287 OA
ENDBRANCH  13  16
ENDBRANCH  12  13
ENDBRANCH  11  12
ENDBRANCH  10  11
ENDBRANCH   1  10
TORSDOF 6
REMARK  Name = ../refined-set-2016/1d4k/1d4k_pocket.pdb
REMARK  229 active torsions:
REMARK  status: ('A' for Active; 'I' for Inactive)
REMARK    1  A    between atoms: _1  and  _3
REMARK    2  A    between atoms: _3  and  _4
REMARK    3  A    between atoms: _3  and  _6
REMARK    4  A    between atoms: _6  and  _7
REMARK    5  A    between atoms: _7  and  _8
REMARK    6  A    between atoms: _8  and  _9
REMARK    7  A    between atoms: _18  and  _20
REMARK    8  A    between atoms: _20  and  _21
REMARK    9  A    between atoms: _20  and  _23
REMARK   10  A    between atoms: _23  and  _24
REMARK   11  A    between atoms: _27  and  _29
REMARK   12  A    between atoms: _29  and  _30
REMARK   13  A    between atoms: _29  and  _32
REMARK   14  A    between atoms: _32  and  _33
REMARK   15  A    between atoms: _36  and  _38
REMARK   16  A    between atoms: _38  and  _39
REMARK   17  A    between atoms: _38  and  _41
REMARK   18  A    between atoms: _41  and  _42
REMARK   19  A    between atoms: _45  and  _47
REMARK   20  A    between atoms: _47  and  _48
REMARK   21  A    between atoms: _47  and  _50
REMARK   22  A    between atoms: _50  and  _51
REMARK   23  A    between atoms: _54  and  _56
REMARK   24  A    between atoms: _56  and  _57
REMARK   25  A    between atoms: _56  and  _59
REMARK   26  A    between atoms: _59  and  _60
REMARK   27  A    between atoms: _63  and  _65
REMARK   28  A    between atoms: _65  and  _66
REMARK   29  A    between atoms: _68  and  _70
REMARK   30  A    between atoms: _70  and  _71
REMARK   31  A    between atoms: _74  and  _76
REMARK   32  A    between atoms: _76  and  _77
REMARK   33  A    between atoms: _76  and  _79
REMARK   34  A    between atoms: _79  and  _80
REMARK   35  A    between atoms: _83  and  _85
REMARK   36  A    between atoms: _85  and  _86
REMARK   37  A    between atoms: _85  and  _88
REMARK   38  A    between atoms: _88  and  _89
REMARK   39  A    between atoms: _92  and  _94
REMARK   40  A    between atoms: _94  and  _95
REMARK   41  A    between atoms: _94  and  _97
REMARK   42  A    between atoms: _97  and  _98
REMARK   43  A    between atoms: _101  and  _103
REMARK   44  A    between atoms: _103  and  _104
REMARK   45  A    between atoms: _103  and  _106
REMARK   46  A    between atoms: _109  and  _111
REMARK   47  A    between atoms: _111  and  _112
REMARK   48  A    between atoms: _111  and  _114
REMARK   49  A    between atoms: _114  and  _115
REMARK   50  A    between atoms: _118  and  _120
REMARK   51  A    between atoms: _120  and  _121
REMARK   52  A    between atoms: _120  and  _123
REMARK   53  A    between atoms: _123  and  _124
REMARK   54  A    between atoms: _124  and  _125
REMARK   55  A    between atoms: _127  and  _129
REMARK   56  A    between atoms: _129  and  _130
REMARK   57  A    between atoms: _129  and  _132
REMARK   58  A    between atoms: _132  and  _133
REMARK   59  A    between atoms: _136  and  _138
REMARK   60  A    between atoms: _138  and  _139
REMARK   61  A    between atoms: _141  and  _143
REMARK   62  A    between atoms: _143  and  _144
REMARK   63  A    between atoms: _146  and  _148
REMARK   64  A    between atoms: _148  and  _149
REMARK   65  A    between atoms: _148  and  _151
REMARK   66  A    between atoms: _151  and  _152
REMARK   67  A    between atoms: _155  and  _157
REMARK   68  A    between atoms: _157  and  _158
REMARK   69  A    between atoms: _160  and  _162
REMARK   70  A    between atoms: _162  and  _163
REMARK   71  A    between atoms: _165  and  _167
REMARK   72  A    between atoms: _167  and  _168
REMARK   73  A    between atoms: _167  and  _170
REMARK   74  A    between atoms: _170  and  _171
REMARK   75  A    between atoms: _174  and  _176
REMARK   76  A    between atoms: _176  and  _177
REMARK   77  A    between atoms: _176  and  _179
REMARK   78  A    between atoms: _182  and  _184
REMARK   79  A    between atoms: _184  and  _185
REMARK   80  A    between atoms: _184  and  _187
REMARK   81  A    between atoms: _187  and  _188
REMARK   82  A    between atoms: _191  and  _193
REMARK   83  A    between atoms: _193  and  _194
REMARK   84  A    between atoms: _193  and  _196
REMARK   85  A    between atoms: _196  and  _197
REMARK   86  A    between atoms: _201  and  _202
REMARK   87  A    between atoms: _207  and  _209
REMARK   88  A    between atoms: _209  and  _210
REMARK   89  A    between atoms: _209  and  _212
REMARK   90  A    between atoms: _215  and  _217
REMARK   91  A    between atoms: _217  and  _218
REMARK   92  A    between atoms: _217  and  _220
REMARK   93  A    between atoms: _220  and  _221
REMARK   94  A    between atoms: _226  and  _228
REMARK   95  A    between atoms: _228  and  _229
REMARK   96  A    between atoms: _228  and  _231
REMARK   97  A    between atoms: _231  and  _232
REMARK   98  A    between atoms: _235  and  _237
REMARK   99  A    between atoms: _237  and  _238
REMARK  100  A    between atoms: _237  and  _240
REMARK  101  A    between atoms: _240  and  _241
REMARK  102  A    between atoms: _244  and  _246
REMARK  103  A    between atoms: _246  and  _247
REMARK  104  A    between atoms: _249  and  _251
REMARK  105  A    between atoms: _251  and  _252
REMARK  106  A    between atoms: _251  and  _254
REMARK  107  A    between atoms: _254  and  _255
REMARK  108  A    between atoms: _255  and  _256
REMARK  109  A    between atoms: _256  and  _257
REMARK  110  A    between atoms: _266  and  _268
REMARK  111  A    between atoms: _268  and  _269
REMARK  112  A    between atoms: _268  and  _271
REMARK  113  A    between atoms: _271  and  _272
REMARK  114  A    between atoms: _277  and  _279
REMARK  115  A    between atoms: _279  and  _280
REMARK  116  A    between atoms: _279  and  _282
REMARK  117  A    between atoms: _282  and  _283
REMARK  118  A    between atoms: _283  and  _284
REMARK  119  A    between atoms: _284  and  _285
REMARK  120  A    between atoms: _294  and  _296
REMARK  121  A    between atoms: _296  and  _297
REMARK  122  A    between atoms: _296  and  _299
REMARK  123  A    between atoms: _299  and  _300
REMARK  124  A    between atoms: _303  and  _305
REMARK  125  A    between atoms: _305  and  _306
REMARK  126  A    between atoms: _305  and  _308
REMARK  127  A    between atoms: _308  and  _309
REMARK  128  A    between atoms: _312  and  _314
REMARK  129  A    between atoms: _314  and  _315
REMARK  130  A    between atoms: _314  and  _317
REMARK  131  A    between atoms: _317  and  _318
REMARK  132  A    between atoms: _321  and  _323
REMARK  133  A    between atoms: _323  and  _324
REMARK  134  A    between atoms: _323  and  _326
REMARK  135  A    between atoms: _326  and  _327
REMARK  136  A    between atoms: _330  and  _332
REMARK  137  A    between atoms: _332  and  _333
REMARK  138  A    between atoms: _332  and  _335
REMARK  139  A    between atoms: _335  and  _336
REMARK  140  A    between atoms: _339  and  _341
REMARK  141  A    between atoms: _341  and  _342
REMARK  142  A    between atoms: _344  and  _346
REMARK  143  A    between atoms: _346  and  _347
REMARK  144  A    between atoms: _350  and  _352
REMARK  145  A    between atoms: _352  and  _353
REMARK  146  A    between atoms: _352  and  _355
REMARK  147  A    between atoms: _355  and  _356
REMARK  148  A    between atoms: _359  and  _361
REMARK  149  A    between atoms: _361  and  _362
REMARK  150  A    between atoms: _361  and  _364
REMARK  151  A    between atoms: _364  and  _365
REMARK  152  A    between atoms: _368  and  _370
REMARK  153  A    between atoms: _370  and  _371
REMARK  154  A    between atoms: _370  and  _373
REMARK  155  A    between atoms: _373  and  _374
REMARK  156  A    between atoms: _377  and  _379
REMARK  157  A    between atoms: _379  and  _380
REMARK  158  A    between atoms: _379  and  _382
REMARK  159  A    between atoms: _385  and  _387
REMARK  160  A    between atoms: _387  and  _388
REMARK  161  A    between atoms: _387  and  _390
REMARK  162  A    between atoms: _390  and  _391
REMARK  163  A    between atoms: _391  and  _392
REMARK  164  A    between atoms: _392  and  _393
REMARK  165  A    between atoms: _393  and  _394
REMARK  166  A    between atoms: _398  and  _400
REMARK  167  A    between atoms: _400  and  _401
REMARK  168  A    between atoms: _400  and  _403
REMARK  169  A    between atoms: _403  and  _404
REMARK  170  A    between atoms: _404  and  _405
REMARK  171  A    between atoms: _407  and  _409
REMARK  172  A    between atoms: _409  and  _410
REMARK  173  A    between atoms: _409  and  _412
REMARK  174  A    between atoms: _412  and  _413
REMARK  175  A    between atoms: _416  and  _418
REMARK  176  A    between atoms: _418  and  _419
REMARK  177  A    between atoms: _421  and  _423
REMARK  178  A    between atoms: _423  and  _424
REMARK  179  A    between atoms: _426  and  _428
REMARK  180  A    between atoms: _428  and  _429
REMARK  181  A    between atoms: _428  and  _431
REMARK  182  A    between atoms: _431  and  _432
REMARK  183  A    between atoms: _435  and  _437
REMARK  184  A    between atoms: _437  and  _438
REMARK  185  A    between atoms: _440  and  _442
REMARK  186  A    between atoms: _442  and  _443
REMARK  187  A    between atoms: _445  and  _447
REMARK  188  A    between atoms: _447  and  _448
REMARK  189  A    between atoms: _447  and  _450
REMARK  190  A    between atoms: _450  and  _451
REMARK  191  A    between atoms: _457  and  _459
REMARK  192  A    between atoms: _459  and  _460
REMARK  193  A    between atoms: _459  and  _462
REMARK  194  A    between atoms: _462  and  _463
REMARK  195  A    between atoms: _466  and  _468
REMARK  196  A    between atoms: _468  and  _469
REMARK  197  A    between atoms: _468  and  _471
REMARK  198  A    between atoms: _474  and  _476
REMARK  199  A    between atoms: _476  and  _477
REMARK  200  A    between atoms: _476  and  _479
REMARK  201  A    between atoms: _479  and  _480
REMARK  202  A    between atoms: _483  and  _485
REMARK  203  A    between atoms: _485  and  _486
REMARK  204  A    between atoms: _485  and  _488
REMARK  205  A    between atoms: _488  and  _489
REMARK  206  A    between atoms: _493  and  _494
REMARK  207  A    between atoms: _499  and  _501
REMARK  208  A    between atoms: _501  and  _502
REMARK  209  A    between atoms: _501  and  _504
REMARK  210  A    between atoms: _507  and  _509
REMARK  211  A    between atoms: _509  and  _510
REMARK  212  A    between atoms: _509  and  _512
REMARK  213  A    between atoms: _512  and  _513
REMARK  214  A    between atoms: _518  and  _520
REMARK  215  A    between atoms: _520  and  _521
REMARK  216  A    between atoms: _520  and  _523
REMARK  217  A    between atoms: _523  and  _524
REMARK  218  A    between atoms: _527  and  _529
REMARK  219  A    between atoms: _529  and  _530
REMARK  220  A    between atoms: _529  and  _532
REMARK  221  A    between atoms: _532  and  _533
REMARK  222  A    between atoms: _536  and  _538
REMARK  223  A    between atoms: _538  and  _539
REMARK  224  A    between atoms: _541  and  _543
REMARK  225  A    between atoms: _543  and  _544
REMARK  226  A    between atoms: _543  and  _546
REMARK  227  A    between atoms: _546  and  _547
REMARK  228  A    between atoms: _547  and  _548
REMARK  229  A    between atoms: _548  and  _549
REMARK                            x       y       z     vdW  Elec       q    Type
REMARK                         _______ _______ _______ _____ _____    ______ ____
ROOT
ATOM      1  CA  LEU A   1      12.345  10.827  17.304  0.00  0.00    +0.133 C 
ENDROOT
BRANCH   1   2
ATOM      2  N   LEU A   1      10.957  11.075  17.731  0.00  0.00    -0.239 NA
ATOM      3  H   LEU A   1      10.480  11.935  17.393  0.00  0.00    +0.142 HD
ENDBRANCH   1   2
BRANCH   1   4
ATOM      4  C   LEU A   1      13.339  11.496  18.250  0.00  0.00    +0.224 C 
ATOM      5  O   LEU A   1      13.176  12.663  18.608  0.00  0.00    -0.287 OA
ENDBRANCH   1   4
BRANCH   1   6
ATOM      6  CB  LEU A   1      12.581  11.367  15.888  0.00  0.00    +0.025 C 
BRANCH   6   7
ATOM      7  CG  LEU A   1      12.253  10.537  14.641  0.00  0.00    +0.002 C 
ATOM      8  CD2 LEU A   1      10.802  10.152  14.632  0.00  0.00    +0.000 C 
ATOM      9  CD1 LEU A   1      13.129   9.299  14.571  0.00  0.00    +0.000 C 
ENDBRANCH   6   7
ENDBRANCH   1   6
TORSDOF 4
REMARK  Name = ../refined-set-2016/1d4k/1d4k_pocket.pdb
REMARK  229 active torsions:
REMARK  status: ('A' for Active; 'I' for Inactive)
REMARK    1  A    between atoms: _1  and  _3
REMARK    2  A    between atoms: _3  and  _4
REMARK    3  A    between atoms: _3  and  _6
REMARK    4  A    between atoms: _6  and  _7
REMARK    5  A    between atoms: _7  and  _8
REMARK    6  A    between atoms: _8  and  _9
REMARK    7  A    between atoms: _18  and  _20
REMARK    8  A    between atoms: _20  and  _21
REMARK    9  A    between atoms: _20  and  _23
REMARK   10  A    between atoms: _23  and  _24
REMARK   11  A    between atoms: _27  and  _29
REMARK   12  A    between atoms: _29  and  _30
REMARK   13  A    between atoms: _29  and  _32
REMARK   14  A    between atoms: _32  and  _33
REMARK   15  A    between atoms: _36  and  _38
REMARK   16  A    between atoms: _38  and  _39
REMARK   17  A    between atoms: _38  and  _41
REMARK   18  A    between atoms: _41  and  _42
REMARK   19  A    between atoms: _45  and  _47
REMARK   20  A    between atoms: _47  and  _48
REMARK   21  A    between atoms: _47  and  _50
REMARK   22  A    between atoms: _50  and  _51
REMARK   23  A    between atoms: _54  and  _56
REMARK   24  A    between atoms: _56  and  _57
REMARK   25  A    between atoms: _56  and  _59
REMARK   26  A    between atoms: _59  and  _60
REMARK   27  A    between atoms: _63  and  _65
REMARK   28  A    between atoms: _65  and  _66
REMARK   29  A    between atoms: _68  and  _70
REMARK   30  A    between atoms: _70  and  _71
REMARK   31  A    between atoms: _74  and  _76
REMARK   32  A    between atoms: _76  and  _77
REMARK   33  A    between atoms: _76  and  _79
REMARK   34  A    between atoms: _79  and  _80
REMARK   35  A    between atoms: _83  and  _85
REMARK   36  A    between atoms: _85  and  _86
REMARK   37  A    between atoms: _85  and  _88
REMARK   38  A    between atoms: _88  and  _89
REMARK   39  A    between atoms: _92  and  _94
REMARK   40  A    between atoms: _94  and  _95
REMARK   41  A    between atoms: _94  and  _97
REMARK   42  A    between atoms: _97  and  _98
REMARK   43  A    between atoms: _101  and  _103
REMARK   44  A    between atoms: _103  and  _104
REMARK   45  A    between atoms: _103  and  _106
REMARK   46  A    between atoms: _109  and  _111
REMARK   47  A    between atoms: _111  and  _112
REMARK   48  A    between atoms: _111  and  _114
REMARK   49  A    between atoms: _114  and  _115
REMARK   50  A    between atoms: _118  and  _120
REMARK   51  A    between atoms: _120  and  _121
REMARK   52  A    between atoms: _120  and  _123
REMARK   53  A    between atoms: _123  and  _124
REMARK   54  A    between atoms: _124  and  _125
REMARK   55  A    between atoms: _127  and  _129
REMARK   56  A    between atoms: _129  and  _130
REMARK   57  A    between atoms: _129  and  _132
REMARK   58  A    between atoms: _132  and  _133
REMARK   59  A    between atoms: _136  and  _138
REMARK   60  A    between atoms: _138  and  _139
REMARK   61  A    between atoms: _141  and  _143
REMARK   62  A    between atoms: _143  and  _144
REMARK   63  A    between atoms: _146  and  _148
REMARK   64  A    between atoms: _148  and  _149
REMARK   65  A    between atoms: _148  and  _151
REMARK   66  A    between atoms: _151  and  _152
REMARK   67  A    between atoms: _155  and  _157
REMARK   68  A    between atoms: _157  and  _158
REMARK   69  A    between atoms: _160  and  _162
REMARK   70  A    between atoms: _162  and  _163
REMARK   71  A    between atoms: _165  and  _167
REMARK   72  A    between atoms: _167  and  _168
REMARK   73  A    between atoms: _167  and  _170
REMARK   74  A    between atoms: _170  and  _171
REMARK   75  A    between atoms: _174  and  _176
REMARK   76  A    between atoms: _176  and  _177
REMARK   77  A    between atoms: _176  and  _179
REMARK   78  A    between atoms: _182  and  _184
REMARK   79  A    between atoms: _184  and  _185
REMARK   80  A    between atoms: _184  and  _187
REMARK   81  A    between atoms: _187  and  _188
REMARK   82  A    between atoms: _191  and  _193
REMARK   83  A    between atoms: _193  and  _194
REMARK   84  A    between atoms: _193  and  _196
REMARK   85  A    between atoms: _196  and  _197
REMARK   86  A    between atoms: _201  and  _202
REMARK   87  A    between atoms: _207  and  _209
REMARK   88  A    between atoms: _209  and  _210
REMARK   89  A    between atoms: _209  and  _212
REMARK   90  A    between atoms: _215  and  _217
REMARK   91  A    between atoms: _217  and  _218
REMARK   92  A    between atoms: _217  and  _220
REMARK   93  A    between atoms: _220  and  _221
REMARK   94  A    between atoms: _226  and  _228
REMARK   95  A    between atoms: _228  and  _229
REMARK   96  A    between atoms: _228  and  _231
REMARK   97  A    between atoms: _231  and  _232
REMARK   98  A    between atoms: _235  and  _237
REMARK   99  A    between atoms: _237  and  _238
REMARK  100  A    between atoms: _237  and  _240
REMARK  101  A    between atoms: _240  and  _241
REMARK  102  A    between atoms: _244  and  _246
REMARK  103  A    between atoms: _246  and  _247
REMARK  104  A    between atoms: _249  and  _251
REMARK  105  A    between atoms: _251  and  _252
REMARK  106  A    between atoms: _251  and  _254
REMARK  107  A    between atoms: _254  and  _255
REMARK  108  A    between atoms: _255  and  _256
REMARK  109  A    between atoms: _256  and  _257
REMARK  110  A    between atoms: _266  and  _268
REMARK  111  A    between atoms: _268  and  _269
REMARK  112  A    between atoms: _268  and  _271
REMARK  113  A    between atoms: _271  and  _272
REMARK  114  A    between atoms: _277  and  _279
REMARK  115  A    between atoms: _279  and  _280
REMARK  116  A    between atoms: _279  and  _282
REMARK  117  A    between atoms: _282  and  _283
REMARK  118  A    between atoms: _283  and  _284
REMARK  119  A    between atoms: _284  and  _285
REMARK  120  A    between atoms: _294  and  _296
REMARK  121  A    between atoms: _296  and  _297
REMARK  122  A    between atoms: _296  and  _299
REMARK  123  A    between atoms: _299  and  _300
REMARK  124  A    between atoms: _303  and  _305
REMARK  125  A    between atoms: _305  and  _306
REMARK  126  A    between atoms: _305  and  _308
REMARK  127  A    between atoms: _308  and  _309
REMARK  128  A    between atoms: _312  and  _314
REMARK  129  A    between atoms: _314  and  _315
REMARK  130  A    between atoms: _314  and  _317
REMARK  131  A    between atoms: _317  and  _318
REMARK  132  A    between atoms: _321  and  _323
REMARK  133  A    between atoms: _323  and  _324
REMARK  134  A    between atoms: _323  and  _326
REMARK  135  A    between atoms: _326  and  _327
REMARK  136  A    between atoms: _330  and  _332
REMARK  137  A    between atoms: _332  and  _333
REMARK  138  A    between atoms: _332  and  _335
REMARK  139  A    between atoms: _335  and  _336
REMARK  140  A    between atoms: _339  and  _341
REMARK  141  A    between atoms: _341  and  _342
REMARK  142  A    between atoms: _344  and  _346
REMARK  143  A    between atoms: _346  and  _347
REMARK  144  A    between atoms: _350  and  _352
REMARK  145  A    between atoms: _352  and  _353
REMARK  146  A    between atoms: _352  and  _355
REMARK  147  A    between atoms: _355  and  _356
REMARK  148  A    between atoms: _359  and  _361
REMARK  149  A    between atoms: _361  and  _362
REMARK  150  A    between atoms: _361  and  _364
REMARK  151  A    between atoms: _364  and  _365
REMARK  152  A    between atoms: _368  and  _370
REMARK  153  A    between atoms: _370  and  _371
REMARK  154  A    between atoms: _370  and  _373
REMARK  155  A    between atoms: _373  and  _374
REMARK  156  A    between atoms: _377  and  _379
REMARK  157  A    between atoms: _379  and  _380
REMARK  158  A    between atoms: _379  and  _382
REMARK  159  A    between atoms: _385  and  _387
REMARK  160  A    between atoms: _387  and  _388
REMARK  161  A    between atoms: _387  and  _390
REMARK  162  A    between atoms: _390  and  _391
REMARK  163  A    between atoms: _391  and  _392
REMARK  164  A    between atoms: _392  and  _393
REMARK  165  A    between atoms: _393  and  _394
REMARK  166  A    between atoms: _398  and  _400
REMARK  167  A    between atoms: _400  and  _401
REMARK  168  A    between atoms: _400  and  _403
REMARK  169  A    between atoms: _403  and  _404
REMARK  170  A    between atoms: _404  and  _405
REMARK  171  A    between atoms: _407  and  _409
REMARK  172  A    between atoms: _409  and  _410
REMARK  173  A    between atoms: _409  and  _412
REMARK  174  A    between atoms: _412  and  _413
REMARK  175  A    between atoms: _416  and  _418
REMARK  176  A    between atoms: _418  and  _419
REMARK  177  A    between atoms: _421  and  _423
REMARK  178  A    between atoms: _423  and  _424
REMARK  179  A    between atoms: _426  and  _428
REMARK  180  A    between atoms: _428  and  _429
REMARK  181  A    between atoms: _428  and  _431
REMARK  182  A    between atoms: _431  and  _432
REMARK  183  A    between atoms: _435  and  _437
REMARK  184  A    between atoms: _437  and  _438
REMARK  185  A    between atoms: _440  and  _442
REMARK  186  A    between atoms: _442  and  _443
REMARK  187  A    between atoms: _445  and  _447
REMARK  188  A    between atoms: _447  and  _448
REMARK  189  A    between atoms: _447  and  _450
REMARK  190  A    between atoms: _450  and  _451
REMARK  191  A    between atoms: _457  and  _459
REMARK  192  A    between atoms: _459  and  _460
REMARK  193  A    between atoms: _459  and  _462
REMARK  194  A    between atoms: _462  and  _463
REMARK  195  A    between atoms: _466  and  _468
REMARK  196  A    between atoms: _468  and  _469
REMARK  197  A    between atoms: _468  and  _471
REMARK  198  A    between atoms: _474  and  _476
REMARK  199  A    between atoms: _476  and  _477
REMARK  200  A    between atoms: _476  and  _479
REMARK  201  A    between atoms: _479  and  _480
REMARK  202  A    between atoms: _483  and  _485
REMARK  203  A    between atoms: _485  and  _486
REMARK  204  A    between atoms: _485  and  _488
REMARK  205  A    between atoms: _488  and  _489
REMARK  206  A    between atoms: _493  and  _494
REMARK  207  A    between atoms: _499  and  _501
REMARK  208  A    between atoms: _501  and  _502
REMARK  209  A    between atoms: _501  and  _504
REMARK  210  A    between atoms: _507  and  _509
REMARK  211  A    between atoms: _509  and  _510
REMARK  212  A    between atoms: _509  and  _512
REMARK  213  A    between atoms: _512  and  _513
REMARK  214  A    between atoms: _518  and  _520
REMARK  215  A    between atoms: _520  and  _521
REMARK  216  A    between atoms: _520  and  _523
REMARK  217  A    between atoms: _523  and  _524
REMARK  218  A    between atoms: _527  and  _529
REMARK  219  A    between atoms: _529  and  _530
REMARK  220  A    between atoms: _529  and  _532
REMARK  221  A    between atoms: _532  and  _533
REMARK  222  A    between atoms: _536  and  _538
REMARK  223  A    between atoms: _538  and  _539
REMARK  224  A    between atoms: _541  and  _543
REMARK  225  A    between atoms: _543  and  _544
REMARK  226  A    between atoms: _543  and  _546
REMARK  227  A    between atoms: _546  and  _547
REMARK  228  A    between atoms: _547  and  _548
REMARK  229  A    between atoms: _548  and  _549
REMARK                            x       y       z     vdW  Elec       q    Type
REMARK                         _______ _______ _______ _____ _____    ______ ____
ROOT
ATOM      1  C   GLY A   5       5.739  -2.058  20.285  0.00  0.00    +0.243 C 
ATOM      2  N   ALA A   6       7.026  -1.745  20.402  0.00  0.00    -0.297 N 
ATOM      3  H   ALA A   6       7.284  -0.820  20.801  0.00  0.00    +0.150 HD
ATOM      4  O   GLY A   5       5.352  -3.129  19.816  0.00  0.00    -0.273 OA
ENDROOT
BRANCH   2   5
ATOM      5  CA  ALA A   6       8.096  -2.662  19.986  0.00  0.00    +0.149 C 
ATOM      6  CB  ALA A   6       9.187  -1.897  19.259  0.00  0.00    +0.031 C 
BRANCH   5   7
ATOM      7  C   ALA A   6       8.689  -3.379  21.188  0.00  0.00    +0.241 C 
ATOM      8  O   ALA A   6       9.148  -2.738  22.133  0.00  0.00    -0.273 OA
ATOM      9  N   ASP A   7       8.676  -4.706  21.154  0.00  0.00    -0.297 N 
ATOM     10  H   ASP A   7       8.256  -5.194  20.338  0.00  0.00    +0.150 HD
BRANCH   9  11
ATOM     11  CA  ASP A   7       9.248  -5.494  22.255  0.00  0.00    +0.160 C 
BRANCH  11  12
ATOM     12  C   ASP A   7      10.756  -5.324  22.277  0.00  0.00    +0.241 C 
ATOM     13  O   ASP A   7      11.359  -5.214  23.345  0.00  0.00    -0.273 OA
ATOM     14  N   ASP A   8      11.352  -5.304  21.085  0.00  0.00    -0.297 N 
ATOM     15  H   ASP A   8      10.763  -5.378  20.231  0.00  0.00    +0.150 HD
BRANCH  14  16
ATOM     16  CA  ASP A   8      12.811  -5.181  20.929  0.00  0.00    +0.160 C 
BRANCH  16  17
ATOM     17  C   ASP A   8      13.226  -3.883  20.251  0.00  0.00    +0.241 C 
ATOM     18  N   THR A   9      14.537  -3.677  20.185  0.00  0.00    -0.295 N 
ATOM     19  H   THR A   9      15.169  -4.391  20.601  0.00  0.00    +0.150 HD
ATOM     20  O   ASP A   8      12.390  -3.111  19.780  0.00  0.00    -0.273 OA
BRANCH  18  21
ATOM     21  CA  THR A   9      15.143  -2.495  19.556  0.00  0.00    +0.176 C 
BRANCH  21  22
ATOM     22  C   THR A   9      15.701  -2.912  18.194  0.00  0.00    +0.243 C 
ATOM     23  O   THR A   9      16.479  -3.865  18.104  0.00  0.00    -0.273 OA
ATOM     24  N   VAL A  10      15.283  -2.220  17.135  0.00  0.00    -0.298 N 
ATOM     25  H   VAL A  10      14.611  -1.438  17.270  0.00  0.00    +0.150 HD
BRANCH  24  26
ATOM     26  CA  VAL A  10      15.755  -2.541  15.773  0.00  0.00    +0.137 C 
BRANCH  26  27
ATOM     27  CB  VAL A  10      14.595  -2.983  14.856  0.00  0.00    +0.026 C 
ATOM     28  CG2 VAL A  10      13.792  -4.088  15.520  0.00  0.00    +0.002 C 
ATOM     29  CG1 VAL A  10      15.139  -3.451  13.507  0.00  0.00    +0.002 C 
ENDBRANCH  26  27
BRANCH  26  30
ATOM     30  C   VAL A  10      16.458  -1.347  15.141  0.00  0.00    +0.227 C 
ATOM     31  O   VAL A  10      15.853  -0.303  14.898  0.00  0.00    -0.286 OA
ENDBRANCH  26  30
ENDBRANCH  24  26
ENDBRANCH  21  22
BRANCH  21  32
ATOM     32  CB  THR A   9      16.285  -1.945  20.440  0.00  0.00    +0.137 C 
ATOM     33  CG2 THR A   9      17.095  -0.890  19.700  0.00  0.00    +0.034 C 
BRANCH  32  34
ATOM     34  OG1 THR A   9      15.731  -1.379  21.635  0.00  0.00    -0.382 OA
ATOM     35  HG1 THR A   9      15.235  -2.078  22.131  0.00  0.00    +0.210 HD
ENDBRANCH  32  34
ENDBRANCH  21  32
ENDBRANCH  18  21
ENDBRANCH  16  17
BRANCH  16  36
ATOM     36  CB  ASP A   8      13.354  -6.349  20.097  0.00  0.00    +0.143 C 
BRANCH  36  37
ATOM     37  CG  ASP A   8      12.721  -7.679  20.461  0.00  0.00    +0.367 C 
ATOM     38  OD2 ASP A   8      13.030  -8.215  21.544  0.00  0.00    -0.246 OA
ATOM     39  OD1 ASP A   8      11.908  -8.185  19.659  0.00  0.00    -0.246 OA
ENDBRANCH  36  37
ENDBRANCH  16  36
ENDBRANCH  14  16
ENDBRANCH  11  12
BRANCH  11  40
ATOM     40  CB  ASP A   7       8.945  -6.982  22.078  0.00  0.00    +0.143 C 
BRANCH  40  41
ATOM     41  CG  ASP A   7       7.505  -7.336  22.364  0.00  0.00    +0.367 C 
ATOM     42  OD2 ASP A   7       6.753  -6.495  22.904  0.00  0.00    -0.246 OA
ATOM     43  OD1 ASP A   7       7.131  -8.483  22.056  0.00  0.00    -0.246 OA
ENDBRANCH  40  41
ENDBRANCH  11  40
ENDBRANCH   9  11
ENDBRANCH   5   7
ENDBRANCH   2   5
BRANCH   1  44
ATOM     44  CA  GLY A   5       4.741  -1.014  20.758  0.00  0.00    +0.176 C 
BRANCH  44  47
ATOM     45  C   THR A   4       5.601   0.233  22.660  0.00  0.00    +0.243 C 
ATOM     46  O   THR A   4       5.310  -0.667  23.446  0.00  0.00    -0.273 OA
ATOM     47  N   GLY A   5       5.365   0.160  21.351  0.00  0.00    -0.295 N 
ATOM     48  H   GLY A   5       5.632   0.958  20.740  0.00  0.00    +0.150 HD
BRANCH  45  49
ATOM     49  CA  THR A   4       6.268   1.514  23.162  0.00  0.00    +0.176 C 
BRANCH  49  51
ATOM     50  C   ASP A   3       7.954   1.946  21.439  0.00  0.00    +0.241 C 
ATOM     51  N   THR A   4       6.835   2.311  22.060  0.00  0.00    -0.295 N 
ATOM     52  H   THR A   4       6.349   3.180  21.760  0.00  0.00    +0.150 HD
ATOM     53  O   ASP A   3       8.555   0.904  21.702  0.00  0.00    -0.273 OA
BRANCH  50  54
ATOM     54  CA  ASP A   3       8.423   2.852  20.301  0.00  0.00    +0.160 C 
BRANCH  54  56
ATOM     55  C   LEU A   2       9.463   5.042  20.594  0.00  0.00    +0.241 C 
ATOM     56  N   ASP A   3       9.565   3.718  20.610  0.00  0.00    -0.297 N 
ATOM     57  H   ASP A   3      10.480   3.284  20.848  0.00  0.00    +0.150 HD
ATOM     58  O   LEU A   2       8.404   5.633  20.402  0.00  0.00    -0.273 OA
BRANCH  55  59
ATOM     59  CA  LEU A   2      10.753   5.814  20.840  0.00  0.00    +0.149 C 
BRANCH  59  61
ATOM     60  C   LEU A   1      11.598   5.699  18.541  0.00  0.00    +0.238 C 
ATOM     61  N   LEU A   2      11.086   6.422  19.538  0.00  0.00    -0.297 N 
ATOM     62  H   LEU A   2      10.918   7.438  19.394  0.00  0.00    +0.150 HD
ATOM     63  O   LEU A   1      11.888   4.506  18.662  0.00  0.00    -0.274 OA
BRANCH  60  64
ATOM     64  CA  LEU A   1      11.864   6.430  17.223  0.00  0.00    +0.145 C 
BRANCH  64  65
ATOM     65  N   LEU A   1      13.259   6.268  16.801  0.00  0.00    -0.238 NA
ATOM     66  H   LEU A   1      13.506   5.437  16.227  0.00  0.00    +0.142 HD
ENDBRANCH  64  65
BRANCH  64  67
ATOM     67  CB  LEU A   1      10.959   5.857  16.129  0.00  0.00    +0.026 C 
BRANCH  67  68
ATOM     68  CG  LEU A   1       9.441   5.951  16.235  0.00  0.00    +0.002 C 
ATOM     69  CD2 LEU A   1       9.007   7.383  16.054  0.00  0.00    +0.000 C 
ATOM     70  CD1 LEU A   1       8.818   5.081  15.160  0.00  0.00    +0.000 C 
ENDBRANCH  67  68
ENDBRANCH  64  67
ENDBRANCH  60  64
ENDBRANCH  59  61
BRANCH  59  71
ATOM     71  CB  LEU A   2      10.557   6.891  21.907  0.00  0.00    +0.029 C 
BRANCH  71  72
ATOM     72  CG  LEU A   2      11.792   7.752  22.185  0.00  0.00    +0.002 C 
ATOM     73  CD2 LEU A   2      11.507   8.700  23.331  0.00  0.00    +0.000 C 
ATOM     74  CD1 LEU A   2      12.984   6.870  22.520  0.00  0.00    +0.000 C 
ENDBRANCH  71  72
ENDBRANCH  59  71
ENDBRANCH  55  59
ENDBRANCH  54  56
BRANCH  54  75
ATOM     75  CB  ASP A   3       8.809   2.003  19.087  0.00  0.00    +0.143 C 
BRANCH  75  76
ATOM     76  CG  ASP A   3       7.617   1.419  18.357  0.00  0.00    +0.367 C 
ATOM     77  OD2 ASP A   3       6.517   1.307  18.938  0.00  0.00    -0.246 OA
ATOM     78  OD1 ASP A   3       7.799   1.063  17.177  0.00  0.00    -0.246 OA
ENDBRANCH  75  76
ENDBRANCH  54  75
ENDBRANCH  50  54
ENDBRANCH  49  51
BRANCH  49  79
ATOM     79  CB  THR A   4       5.245   2.322  23.981  0.00  0.00    +0.137 C 
ATOM     80  CG2 THR A   4       5.919   3.502  24.654  0.00  0.00    +0.034 C 
BRANCH  79  81
ATOM     81  OG1 THR A   4       4.199   2.792  23.126  0.00  0.00    -0.382 OA
ATOM     82  HG1 THR A   4       3.745   2.019  22.707  0.00  0.00    +0.210 HD
ENDBRANCH  79  81
ENDBRANCH  49  79
ENDBRANCH  45  49
ENDBRANCH  44  47
ENDBRANCH   1  44
TORSDOF 35
REMARK  Name = ../refined-set-2016/1d4k/1d4k_pocket.pdb
REMARK  229 active torsions:
REMARK  status: ('A' for Active; 'I' for Inactive)
REMARK    1  A    between atoms: _1  and  _3
REMARK    2  A    between atoms: _3  and  _4
REMARK    3  A    between atoms: _3  and  _6
REMARK    4  A    between atoms: _6  and  _7
REMARK    5  A    between atoms: _7  and  _8
REMARK    6  A    between atoms: _8  and  _9
REMARK    7  A    between atoms: _18  and  _20
REMARK    8  A    between atoms: _20  and  _21
REMARK    9  A    between atoms: _20  and  _23
REMARK   10  A    between atoms: _23  and  _24
REMARK   11  A    between atoms: _27  and  _29
REMARK   12  A    between atoms: _29  and  _30
REMARK   13  A    between atoms: _29  and  _32
REMARK   14  A    between atoms: _32  and  _33
REMARK   15  A    between atoms: _36  and  _38
REMARK   16  A    between atoms: _38  and  _39
REMARK   17  A    between atoms: _38  and  _41
REMARK   18  A    between atoms: _41  and  _42
REMARK   19  A    between atoms: _45  and  _47
REMARK   20  A    between atoms: _47  and  _48
REMARK   21  A    between atoms: _47  and  _50
REMARK   22  A    between atoms: _50  and  _51
REMARK   23  A    between atoms: _54  and  _56
REMARK   24  A    between atoms: _56  and  _57
REMARK   25  A    between atoms: _56  and  _59
REMARK   26  A    between atoms: _59  and  _60
REMARK   27  A    between atoms: _63  and  _65
REMARK   28  A    between atoms: _65  and  _66
REMARK   29  A    between atoms: _68  and  _70
REMARK   30  A    between atoms: _70  and  _71
REMARK   31  A    between atoms: _74  and  _76
REMARK   32  A    between atoms: _76  and  _77
REMARK   33  A    between atoms: _76  and  _79
REMARK   34  A    between atoms: _79  and  _80
REMARK   35  A    between atoms: _83  and  _85
REMARK   36  A    between atoms: _85  and  _86
REMARK   37  A    between atoms: _85  and  _88
REMARK   38  A    between atoms: _88  and  _89
REMARK   39  A    between atoms: _92  and  _94
REMARK   40  A    between atoms: _94  and  _95
REMARK   41  A    between atoms: _94  and  _97
REMARK   42  A    between atoms: _97  and  _98
REMARK   43  A    between atoms: _101  and  _103
REMARK   44  A    between atoms: _103  and  _104
REMARK   45  A    between atoms: _103  and  _106
REMARK   46  A    between atoms: _109  and  _111
REMARK   47  A    between atoms: _111  and  _112
REMARK   48  A    between atoms: _111  and  _114
REMARK   49  A    between atoms: _114  and  _115
REMARK   50  A    between atoms: _118  and  _120
REMARK   51  A    between atoms: _120  and  _121
REMARK   52  A    between atoms: _120  and  _123
REMARK   53  A    between atoms: _123  and  _124
REMARK   54  A    between atoms: _124  and  _125
REMARK   55  A    between atoms: _127  and  _129
REMARK   56  A    between atoms: _129  and  _130
REMARK   57  A    between atoms: _129  and  _132
REMARK   58  A    between atoms: _132  and  _133
REMARK   59  A    between atoms: _136  and  _138
REMARK   60  A    between atoms: _138  and  _139
REMARK   61  A    between atoms: _141  and  _143
REMARK   62  A    between atoms: _143  and  _144
REMARK   63  A    between atoms: _146  and  _148
REMARK   64  A    between atoms: _148  and  _149
REMARK   65  A    between atoms: _148  and  _151
REMARK   66  A    between atoms: _151  and  _152
REMARK   67  A    between atoms: _155  and  _157
REMARK   68  A    between atoms: _157  and  _158
REMARK   69  A    between atoms: _160  and  _162
REMARK   70  A    between atoms: _162  and  _163
REMARK   71  A    between atoms: _165  and  _167
REMARK   72  A    between atoms: _167  and  _168
REMARK   73  A    between atoms: _167  and  _170
REMARK   74  A    between atoms: _170  and  _171
REMARK   75  A    between atoms: _174  and  _176
REMARK   76  A    between atoms: _176  and  _177
REMARK   77  A    between atoms: _176  and  _179
REMARK   78  A    between atoms: _182  and  _184
REMARK   79  A    between atoms: _184  and  _185
REMARK   80  A    between atoms: _184  and  _187
REMARK   81  A    between atoms: _187  and  _188
REMARK   82  A    between atoms: _191  and  _193
REMARK   83  A    between atoms: _193  and  _194
REMARK   84  A    between atoms: _193  and  _196
REMARK   85  A    between atoms: _196  and  _197
REMARK   86  A    between atoms: _201  and  _202
REMARK   87  A    between atoms: _207  and  _209
REMARK   88  A    between atoms: _209  and  _210
REMARK   89  A    between atoms: _209  and  _212
REMARK   90  A    between atoms: _215  and  _217
REMARK   91  A    between atoms: _217  and  _218
REMARK   92  A    between atoms: _217  and  _220
REMARK   93  A    between atoms: _220  and  _221
REMARK   94  A    between atoms: _226  and  _228
REMARK   95  A    between atoms: _228  and  _229
REMARK   96  A    between atoms: _228  and  _231
REMARK   97  A    between atoms: _231  and  _232
REMARK   98  A    between atoms: _235  and  _237
REMARK   99  A    between atoms: _237  and  _238
REMARK  100  A    between atoms: _237  and  _240
REMARK  101  A    between atoms: _240  and  _241
REMARK  102  A    between atoms: _244  and  _246
REMARK  103  A    between atoms: _246  and  _247
REMARK  104  A    between atoms: _249  and  _251
REMARK  105  A    between atoms: _251  and  _252
REMARK  106  A    between atoms: _251  and  _254
REMARK  107  A    between atoms: _254  and  _255
REMARK  108  A    between atoms: _255  and  _256
REMARK  109  A    between atoms: _256  and  _257
REMARK  110  A    between atoms: _266  and  _268
REMARK  111  A    between atoms: _268  and  _269
REMARK  112  A    between atoms: _268  and  _271
REMARK  113  A    between atoms: _271  and  _272
REMARK  114  A    between atoms: _277  and  _279
REMARK  115  A    between atoms: _279  and  _280
REMARK  116  A    between atoms: _279  and  _282
REMARK  117  A    between atoms: _282  and  _283
REMARK  118  A    between atoms: _283  and  _284
REMARK  119  A    between atoms: _284  and  _285
REMARK  120  A    between atoms: _294  and  _296
REMARK  121  A    between atoms: _296  and  _297
REMARK  122  A    between atoms: _296  and  _299
REMARK  123  A    between atoms: _299  and  _300
REMARK  124  A    between atoms: _303  and  _305
REMARK  125  A    between atoms: _305  and  _306
REMARK  126  A    between atoms: _305  and  _308
REMARK  127  A    between atoms: _308  and  _309
REMARK  128  A    between atoms: _312  and  _314
REMARK  129  A    between atoms: _314  and  _315
REMARK  130  A    between atoms: _314  and  _317
REMARK  131  A    between atoms: _317  and  _318
REMARK  132  A    between atoms: _321  and  _323
REMARK  133  A    between atoms: _323  and  _324
REMARK  134  A    between atoms: _323  and  _326
REMARK  135  A    between atoms: _326  and  _327
REMARK  136  A    between atoms: _330  and  _332
REMARK  137  A    between atoms: _332  and  _333
REMARK  138  A    between atoms: _332  and  _335
REMARK  139  A    between atoms: _335  and  _336
REMARK  140  A    between atoms: _339  and  _341
REMARK  141  A    between atoms: _341  and  _342
REMARK  142  A    between atoms: _344  and  _346
REMARK  143  A    between atoms: _346  and  _347
REMARK  144  A    between atoms: _350  and  _352
REMARK  145  A    between atoms: _352  and  _353
REMARK  146  A    between atoms: _352  and  _355
REMARK  147  A    between atoms: _355  and  _356
REMARK  148  A    between atoms: _359  and  _361
REMARK  149  A    between atoms: _361  and  _362
REMARK  150  A    between atoms: _361  and  _364
REMARK  151  A    between atoms: _364  and  _365
REMARK  152  A    between atoms: _368  and  _370
REMARK  153  A    between atoms: _370  and  _371
REMARK  154  A    between atoms: _370  and  _373
REMARK  155  A    between atoms: _373  and  _374
REMARK  156  A    between atoms: _377  and  _379
REMARK  157  A    between atoms: _379  and  _380
REMARK  158  A    between atoms: _379  and  _382
REMARK  159  A    between atoms: _385  and  _387
REMARK  160  A    between atoms: _387  and  _388
REMARK  161  A    between atoms: _387  and  _390
REMARK  162  A    between atoms: _390  and  _391
REMARK  163  A    between atoms: _391  and  _392
REMARK  164  A    between atoms: _392  and  _393
REMARK  165  A    between atoms: _393  and  _394
REMARK  166  A    between atoms: _398  and  _400
REMARK  167  A    between atoms: _400  and  _401
REMARK  168  A    between atoms: _400  and  _403
REMARK  169  A    between atoms: _403  and  _404
REMARK  170  A    between atoms: _404  and  _405
REMARK  171  A    between atoms: _407  and  _409
REMARK  172  A    between atoms: _409  and  _410
REMARK  173  A    between atoms: _409  and  _412
REMARK  174  A    between atoms: _412  and  _413
REMARK  175  A    between atoms: _416  and  _418
REMARK  176  A    between atoms: _418  and  _419
REMARK  177  A    between atoms: _421  and  _423
REMARK  178  A    between atoms: _423  and  _424
REMARK  179  A    between atoms: _426  and  _428
REMARK  180  A    between atoms: _428  and  _429
REMARK  181  A    between atoms: _428  and  _431
REMARK  182  A    between atoms: _431  and  _432
REMARK  183  A    between atoms: _435  and  _437
REMARK  184  A    between atoms: _437  and  _438
REMARK  185  A    between atoms: _440  and  _442
REMARK  186  A    between atoms: _442  and  _443
REMARK  187  A    between atoms: _445  and  _447
REMARK  188  A    between atoms: _447  and  _448
REMARK  189  A    between atoms: _447  and  _450
REMARK  190  A    between atoms: _450  and  _451
REMARK  191  A    between atoms: _457  and  _459
REMARK  192  A    between atoms: _459  and  _460
REMARK  193  A    between atoms: _459  and  _462
REMARK  194  A    between atoms: _462  and  _463
REMARK  195  A    between atoms: _466  and  _468
REMARK  196  A    between atoms: _468  and  _469
REMARK  197  A    between atoms: _468  and  _471
REMARK  198  A    between atoms: _474  and  _476
REMARK  199  A    between atoms: _476  and  _477
REMARK  200  A    between atoms: _476  and  _479
REMARK  201  A    between atoms: _479  and  _480
REMARK  202  A    between atoms: _483  and  _485
REMARK  203  A    between atoms: _485  and  _486
REMARK  204  A    between atoms: _485  and  _488
REMARK  205  A    between atoms: _488  and  _489
REMARK  206  A    between atoms: _493  and  _494
REMARK  207  A    between atoms: _499  and  _501
REMARK  208  A    between atoms: _501  and  _502
REMARK  209  A    between atoms: _501  and  _504
REMARK  210  A    between atoms: _507  and  _509
REMARK  211  A    between atoms: _509  and  _510
REMARK  212  A    between atoms: _509  and  _512
REMARK  213  A    between atoms: _512  and  _513
REMARK  214  A    between atoms: _518  and  _520
REMARK  215  A    between atoms: _520  and  _521
REMARK  216  A    between atoms: _520  and  _523
REMARK  217  A    between atoms: _523  and  _524
REMARK  218  A    between atoms: _527  and  _529
REMARK  219  A    between atoms: _529  and  _530
REMARK  220  A    between atoms: _529  and  _532
REMARK  221  A    between atoms: _532  and  _533
REMARK  222  A    between atoms: _536  and  _538
REMARK  223  A    between atoms: _538  and  _539
REMARK  224  A    between atoms: _541  and  _543
REMARK  225  A    between atoms: _543  and  _544
REMARK  226  A    between atoms: _543  and  _546
REMARK  227  A    between atoms: _546  and  _547
REMARK  228  A    between atoms: _547  and  _548
REMARK  229  A    between atoms: _548  and  _549
REMARK                            x       y       z     vdW  Elec       q    Type
REMARK                         _______ _______ _______ _____ _____    ______ ____
ROOT
ATOM      1  C   GLY A   5       4.184  -6.613  11.939  0.00  0.00    +0.243 C 
ATOM      2  O   GLY A   5       3.473  -7.614  11.865  0.00  0.00    -0.273 OA
ATOM      3  N   ILE A   6       3.858  -5.457  11.374  0.00  0.00    -0.297 N 
ATOM      4  H   ILE A   6       4.515  -4.654  11.448  0.00  0.00    +0.150 HD
ENDROOT
BRANCH   3   5
ATOM      5  CA  ILE A   6       2.592  -5.283  10.646  0.00  0.00    +0.149 C 
BRANCH   5   6
ATOM      6  C   ILE A   6       2.417  -6.075   9.339  0.00  0.00    +0.241 C 
ATOM      7  O   ILE A   6       1.511  -6.905   9.245  0.00  0.00    -0.273 OA
ATOM      8  N   GLY A   7       3.291  -5.861   8.359  0.00  0.00    -0.295 N 
ATOM      9  H   GLY A   7       4.071  -5.187   8.499  0.00  0.00    +0.150 HD
BRANCH   8  10
ATOM     10  CA  GLY A   7       3.161  -6.567   7.090  0.00  0.00    +0.176 C 
BRANCH  10  11
ATOM     11  C   GLY A   7       3.827  -7.930   6.965  0.00  0.00    +0.243 C 
ATOM     12  N   GLY A   8       4.383  -8.428   8.064  0.00  0.00    -0.295 N 
ATOM     13  H   GLY A   8       4.328  -7.882   8.947  0.00  0.00    +0.150 HD
ATOM     14  O   GLY A   7       3.820  -8.528   5.888  0.00  0.00    -0.273 OA
BRANCH  12  15
ATOM     15  CA  GLY A   8       5.065  -9.711   8.072  0.00  0.00    +0.176 C 
BRANCH  15  16
ATOM     16  C   GLY A   8       6.370  -9.771   8.845  0.00  0.00    +0.243 C 
ATOM     17  O   GLY A   8       6.576  -9.017   9.800  0.00  0.00    -0.273 OA
ATOM     18  N   PHE A   9       7.258 -10.666   8.411  0.00  0.00    -0.297 N 
ATOM     19  H   PHE A   9       7.018 -11.240   7.577  0.00  0.00    +0.150 HD
BRANCH  18  20
ATOM     20  CA  PHE A   9       8.565 -10.879   9.060  0.00  0.00    +0.153 C 
BRANCH  20  21
ATOM     21  C   PHE A   9       9.769 -10.481   8.217  0.00  0.00    +0.241 C 
ATOM     22  N   ILE A  10      10.840 -10.091   8.902  0.00  0.00    -0.298 N 
ATOM     23  H   ILE A  10      10.779 -10.049   9.939  0.00  0.00    +0.150 HD
ATOM     24  O   PHE A   9       9.740 -10.547   6.987  0.00  0.00    -0.273 OA
BRANCH  22  25
ATOM     25  CA  ILE A  10      12.108  -9.716   8.255  0.00  0.00    +0.137 C 
BRANCH  25  26
ATOM     26  C   ILE A  10      13.231 -10.389   9.039  0.00  0.00    +0.227 C 
ATOM     27  O   ILE A  10      13.110 -10.598  10.251  0.00  0.00    -0.286 OA
ENDBRANCH  25  26
BRANCH  25  28
ATOM     28  CB  ILE A  10      12.358  -8.185   8.265  0.00  0.00    +0.026 C 
ATOM     29  CG2 ILE A  10      11.334  -7.471   7.397  0.00  0.00    +0.002 C 
BRANCH  28  30
ATOM     30  CG1 ILE A  10      12.350  -7.646   9.697  0.00  0.00    +0.002 C 
ATOM     31  CD1 ILE A  10      12.945  -6.260   9.824  0.00  0.00    +0.000 C 
ENDBRANCH  28  30
ENDBRANCH  25  28
ENDBRANCH  22  25
ENDBRANCH  20  21
BRANCH  20  32
ATOM     32  CB  PHE A   9       8.732 -12.353   9.445  0.00  0.00    +0.055 C 
BRANCH  32  33
ATOM     33  CG  PHE A   9       7.841 -12.801  10.568  0.00  0.00    -0.020 A 
ATOM     34  CD2 PHE A   9       8.380 -13.120  11.807  0.00  0.00    -0.004 A 
ATOM     35  CE2 PHE A   9       7.564 -13.541  12.850  0.00  0.00    -0.000 A 
ATOM     36  CZ  PHE A   9       6.194 -13.647  12.653  0.00  0.00    -0.000 A 
ATOM     37  CE1 PHE A   9       5.647 -13.331  11.416  0.00  0.00    -0.000 A 
ATOM     38  CD1 PHE A   9       6.467 -12.913  10.384  0.00  0.00    -0.004 A 
ENDBRANCH  32  33
ENDBRANCH  20  32
ENDBRANCH  18  20
ENDBRANCH  15  16
ENDBRANCH  12  15
ENDBRANCH  10  11
ENDBRANCH   8  10
ENDBRANCH   5   6
BRANCH   5  39
ATOM     39  CB  ILE A   6       2.256  -3.763  10.472  0.00  0.00    +0.027 C 
ATOM     40  CG2 ILE A   6       0.978  -3.590   9.647  0.00  0.00    +0.002 C 
BRANCH  39  41
ATOM     41  CG1 ILE A   6       2.045  -3.145  11.858  0.00  0.00    +0.002 C 
ATOM     42  CD1 ILE A   6       0.897  -3.757  12.647  0.00  0.00    +0.000 C 
ENDBRANCH  39  41
ENDBRANCH   5  39
ENDBRANCH   3   5
BRANCH   1  43
ATOM     43  CA  GLY A   5       5.494  -6.657  12.695  0.00  0.00    +0.176 C 
BRANCH  43  46
ATOM     44  C   GLY A   4       6.584  -8.693  13.403  0.00  0.00    +0.243 C 
ATOM     45  O   GLY A   4       6.501  -8.389  14.593  0.00  0.00    -0.273 OA
ATOM     46  N   GLY A   5       6.148  -7.918  12.419  0.00  0.00    -0.295 N 
ATOM     47  H   GLY A   5       6.278  -8.222  11.433  0.00  0.00    +0.150 HD
BRANCH  44  48
ATOM     48  CA  GLY A   4       7.222  -9.992  12.973  0.00  0.00    +0.176 C 
BRANCH  48  50
ATOM     49  C   ILE A   3       9.622 -10.153  13.089  0.00  0.00    +0.241 C 
ATOM     50  N   GLY A   4       8.445 -10.297  13.686  0.00  0.00    -0.295 N 
ATOM     51  H   GLY A   4       8.401 -10.630  14.670  0.00  0.00    +0.150 HD
ATOM     52  O   ILE A   3       9.745  -9.764  11.927  0.00  0.00    -0.273 OA
BRANCH  49  53
ATOM     53  CA  ILE A   3      10.836 -10.509  13.925  0.00  0.00    +0.149 C 
BRANCH  53  56
ATOM     54  C   MET A   2      12.031 -12.563  13.349  0.00  0.00    +0.241 C 
ATOM     55  O   MET A   2      11.514 -13.189  14.279  0.00  0.00    -0.273 OA
ATOM     56  N   ILE A   3      11.803 -11.273  13.124  0.00  0.00    -0.297 N 
ATOM     57  H   ILE A   3      12.322 -10.792  12.362  0.00  0.00    +0.150 HD
BRANCH  54  58
ATOM     58  CA  MET A   2      13.050 -13.231  12.438  0.00  0.00    +0.149 C 
BRANCH  58  60
ATOM     59  C   LYS A   1      15.412 -13.367  13.056  0.00  0.00    +0.238 C 
ATOM     60  N   MET A   2      14.153 -13.729  13.269  0.00  0.00    -0.297 N 
ATOM     61  H   MET A   2      13.942 -14.385  14.048  0.00  0.00    +0.150 HD
ATOM     62  O   LYS A   1      15.760 -12.657  12.113  0.00  0.00    -0.274 OA
BRANCH  59  63
ATOM     63  CA  LYS A   1      16.433 -13.937  14.026  0.00  0.00    +0.145 C 
BRANCH  63  64
ATOM     64  N   LYS A   1      17.761 -13.972  13.412  0.00  0.00    -0.238 NA
ATOM     65  H   LYS A   1      17.995 -13.301  12.653  0.00  0.00    +0.142 HD
ENDBRANCH  63  64
BRANCH  63  66
ATOM     66  CB  LYS A   1      16.495 -13.068  15.288  0.00  0.00    +0.026 C 
BRANCH  66  67
ATOM     67  CG  LYS A   1      15.327 -13.210  16.237  0.00  0.00    -0.000 C 
BRANCH  67  68
ATOM     68  CD  LYS A   1      15.498 -12.275  17.420  0.00  0.00    -0.024 C 
BRANCH  68  69
ATOM     69  CE  LYS A   1      14.484 -12.558  18.512  0.00  0.00    -0.086 C 
BRANCH  69  70
ATOM     70  NZ  LYS A   1      13.088 -12.425  18.023  0.00  0.00    +0.380 N 
ATOM     71  HZ1 LYS A   1      12.429 -12.627  18.801  0.00  0.00    -0.089 HD
ATOM     72  HZ2 LYS A   1      12.933 -11.456  17.679  0.00  0.00    -0.089 HD
ATOM     73  HZ3 LYS A   1      12.928 -13.099  17.248  0.00  0.00    -0.089 HD
ENDBRANCH  69  70
ENDBRANCH  68  69
ENDBRANCH  67  68
ENDBRANCH  66  67
ENDBRANCH  63  66
ENDBRANCH  59  63
ENDBRANCH  58  60
BRANCH  58  74
ATOM     74  CB  MET A   2      12.369 -14.399  11.719  0.00  0.00    +0.041 C 
BRANCH  74  75
ATOM     75  CG  MET A   2      13.254 -15.169  10.755  0.00  0.00    +0.060 C 
BRANCH  75  76
ATOM     76  SD  MET A   2      13.144 -14.555   9.077  0.00  0.00    -0.139 S 
ATOM     77  CE  MET A   2      11.625 -15.359   8.533  0.00  0.00    +0.069 C 
ENDBRANCH  75  76
ENDBRANCH  74  75
ENDBRANCH  58  74
ENDBRANCH  54  58
ENDBRANCH  53  56
BRANCH  53  78
ATOM     78  CB  ILE A   3      11.444  -9.212  14.499  0.00  0.00    +0.027 C 
ATOM     79  CG2 ILE A   3      12.350  -9.533  15.669  0.00  0.00    +0.002 C 
BRANCH  78  80
ATOM     80  CG1 ILE A   3      12.174  -8.438  13.399  0.00  0.00    +0.002 C 
ATOM     81  CD1 ILE A   3      12.632  -7.074  13.817  0.00  0.00    +0.000 C 
ENDBRANCH  78  80
ENDBRANCH  53  78
ENDBRANCH  49  53
ENDBRANCH  48  50
ENDBRANCH  44  48
ENDBRANCH  43  46
ENDBRANCH   1  43
TORSDOF 36
REMARK  Name = ../refined-set-2016/1d4k/1d4k_pocket.pdb
REMARK  229 active torsions:
REMARK  status: ('A' for Active; 'I' for Inactive)
REMARK    1  A    between atoms: _1  and  _3
REMARK    2  A    between atoms: _3  and  _4
REMARK    3  A    between atoms: _3  and  _6
REMARK    4  A    between atoms: _6  and  _7
REMARK    5  A    between atoms: _7  and  _8
REMARK    6  A    between atoms: _8  and  _9
REMARK    7  A    between atoms: _18  and  _20
REMARK    8  A    between atoms: _20  and  _21
REMARK    9  A    between atoms: _20  and  _23
REMARK   10  A    between atoms: _23  and  _24
REMARK   11  A    between atoms: _27  and  _29
REMARK   12  A    between atoms: _29  and  _30
REMARK   13  A    between atoms: _29  and  _32
REMARK   14  A    between atoms: _32  and  _33
REMARK   15  A    between atoms: _36  and  _38
REMARK   16  A    between atoms: _38  and  _39
REMARK   17  A    between atoms: _38  and  _41
REMARK   18  A    between atoms: _41  and  _42
REMARK   19  A    between atoms: _45  and  _47
REMARK   20  A    between atoms: _47  and  _48
REMARK   21  A    between atoms: _47  and  _50
REMARK   22  A    between atoms: _50  and  _51
REMARK   23  A    between atoms: _54  and  _56
REMARK   24  A    between atoms: _56  and  _57
REMARK   25  A    between atoms: _56  and  _59
REMARK   26  A    between atoms: _59  and  _60
REMARK   27  A    between atoms: _63  and  _65
REMARK   28  A    between atoms: _65  and  _66
REMARK   29  A    between atoms: _68  and  _70
REMARK   30  A    between atoms: _70  and  _71
REMARK   31  A    between atoms: _74  and  _76
REMARK   32  A    between atoms: _76  and  _77
REMARK   33  A    between atoms: _76  and  _79
REMARK   34  A    between atoms: _79  and  _80
REMARK   35  A    between atoms: _83  and  _85
REMARK   36  A    between atoms: _85  and  _86
REMARK   37  A    between atoms: _85  and  _88
REMARK   38  A    between atoms: _88  and  _89
REMARK   39  A    between atoms: _92  and  _94
REMARK   40  A    between atoms: _94  and  _95
REMARK   41  A    between atoms: _94  and  _97
REMARK   42  A    between atoms: _97  and  _98
REMARK   43  A    between atoms: _101  and  _103
REMARK   44  A    between atoms: _103  and  _104
REMARK   45  A    between atoms: _103  and  _106
REMARK   46  A    between atoms: _109  and  _111
REMARK   47  A    between atoms: _111  and  _112
REMARK   48  A    between atoms: _111  and  _114
REMARK   49  A    between atoms: _114  and  _115
REMARK   50  A    between atoms: _118  and  _120
REMARK   51  A    between atoms: _120  and  _121
REMARK   52  A    between atoms: _120  and  _123
REMARK   53  A    between atoms: _123  and  _124
REMARK   54  A    between atoms: _124  and  _125
REMARK   55  A    between atoms: _127  and  _129
REMARK   56  A    between atoms: _129  and  _130
REMARK   57  A    between atoms: _129  and  _132
REMARK   58  A    between atoms: _132  and  _133
REMARK   59  A    between atoms: _136  and  _138
REMARK   60  A    between atoms: _138  and  _139
REMARK   61  A    between atoms: _141  and  _143
REMARK   62  A    between atoms: _143  and  _144
REMARK   63  A    between atoms: _146  and  _148
REMARK   64  A    between atoms: _148  and  _149
REMARK   65  A    between atoms: _148  and  _151
REMARK   66  A    between atoms: _151  and  _152
REMARK   67  A    between atoms: _155  and  _157
REMARK   68  A    between atoms: _157  and  _158
REMARK   69  A    between atoms: _160  and  _162
REMARK   70  A    between atoms: _162  and  _163
REMARK   71  A    between atoms: _165  and  _167
REMARK   72  A    between atoms: _167  and  _168
REMARK   73  A    between atoms: _167  and  _170
REMARK   74  A    between atoms: _170  and  _171
REMARK   75  A    between atoms: _174  and  _176
REMARK   76  A    between atoms: _176  and  _177
REMARK   77  A    between atoms: _176  and  _179
REMARK   78  A    between atoms: _182  and  _184
REMARK   79  A    between atoms: _184  and  _185
REMARK   80  A    between atoms: _184  and  _187
REMARK   81  A    between atoms: _187  and  _188
REMARK   82  A    between atoms: _191  and  _193
REMARK   83  A    between atoms: _193  and  _194
REMARK   84  A    between atoms: _193  and  _196
REMARK   85  A    between atoms: _196  and  _197
REMARK   86  A    between atoms: _201  and  _202
REMARK   87  A    between atoms: _207  and  _209
REMARK   88  A    between atoms: _209  and  _210
REMARK   89  A    between atoms: _209  and  _212
REMARK   90  A    between atoms: _215  and  _217
REMARK   91  A    between atoms: _217  and  _218
REMARK   92  A    between atoms: _217  and  _220
REMARK   93  A    between atoms: _220  and  _221
REMARK   94  A    between atoms: _226  and  _228
REMARK   95  A    between atoms: _228  and  _229
REMARK   96  A    between atoms: _228  and  _231
REMARK   97  A    between atoms: _231  and  _232
REMARK   98  A    between atoms: _235  and  _237
REMARK   99  A    between atoms: _237  and  _238
REMARK  100  A    between atoms: _237  and  _240
REMARK  101  A    between atoms: _240  and  _241
REMARK  102  A    between atoms: _244  and  _246
REMARK  103  A    between atoms: _246  and  _247
REMARK  104  A    between atoms: _249  and  _251
REMARK  105  A    between atoms: _251  and  _252
REMARK  106  A    between atoms: _251  and  _254
REMARK  107  A    between atoms: _254  and  _255
REMARK  108  A    between atoms: _255  and  _256
REMARK  109  A    between atoms: _256  and  _257
REMARK  110  A    between atoms: _266  and  _268
REMARK  111  A    between atoms: _268  and  _269
REMARK  112  A    between atoms: _268  and  _271
REMARK  113  A    between atoms: _271  and  _272
REMARK  114  A    between atoms: _277  and  _279
REMARK  115  A    between atoms: _279  and  _280
REMARK  116  A    between atoms: _279  and  _282
REMARK  117  A    between atoms: _282  and  _283
REMARK  118  A    between atoms: _283  and  _284
REMARK  119  A    between atoms: _284  and  _285
REMARK  120  A    between atoms: _294  and  _296
REMARK  121  A    between atoms: _296  and  _297
REMARK  122  A    between atoms: _296  and  _299
REMARK  123  A    between atoms: _299  and  _300
REMARK  124  A    between atoms: _303  and  _305
REMARK  125  A    between atoms: _305  and  _306
REMARK  126  A    between atoms: _305  and  _308
REMARK  127  A    between atoms: _308  and  _309
REMARK  128  A    between atoms: _312  and  _314
REMARK  129  A    between atoms: _314  and  _315
REMARK  130  A    between atoms: _314  and  _317
REMARK  131  A    between atoms: _317  and  _318
REMARK  132  A    between atoms: _321  and  _323
REMARK  133  A    between atoms: _323  and  _324
REMARK  134  A    between atoms: _323  and  _326
REMARK  135  A    between atoms: _326  and  _327
REMARK  136  A    between atoms: _330  and  _332
REMARK  137  A    between atoms: _332  and  _333
REMARK  138  A    between atoms: _332  and  _335
REMARK  139  A    between atoms: _335  and  _336
REMARK  140  A    between atoms: _339  and  _341
REMARK  141  A    between atoms: _341  and  _342
REMARK  142  A    between atoms: _344  and  _346
REMARK  143  A    between atoms: _346  and  _347
REMARK  144  A    between atoms: _350  and  _352
REMARK  145  A    between atoms: _352  and  _353
REMARK  146  A    between atoms: _352  and  _355
REMARK  147  A    between atoms: _355  and  _356
REMARK  148  A    between atoms: _359  and  _361
REMARK  149  A    between atoms: _361  and  _362
REMARK  150  A    between atoms: _361  and  _364
REMARK  151  A    between atoms: _364  and  _365
REMARK  152  A    between atoms: _368  and  _370
REMARK  153  A    between atoms: _370  and  _371
REMARK  154  A    between atoms: _370  and  _373
REMARK  155  A    between atoms: _373  and  _374
REMARK  156  A    between atoms: _377  and  _379
REMARK  157  A    between atoms: _379  and  _380
REMARK  158  A    between atoms: _379  and  _382
REMARK  159  A    between atoms: _385  and  _387
REMARK  160  A    between atoms: _387  and  _388
REMARK  161  A    between atoms: _387  and  _390
REMARK  162  A    between atoms: _390  and  _391
REMARK  163  A    between atoms: _391  and  _392
REMARK  164  A    between atoms: _392  and  _393
REMARK  165  A    between atoms: _393  and  _394
REMARK  166  A    between atoms: _398  and  _400
REMARK  167  A    between atoms: _400  and  _401
REMARK  168  A    between atoms: _400  and  _403
REMARK  169  A    between atoms: _403  and  _404
REMARK  170  A    between atoms: _404  and  _405
REMARK  171  A    between atoms: _407  and  _409
REMARK  172  A    between atoms: _409  and  _410
REMARK  173  A    between atoms: _409  and  _412
REMARK  174  A    between atoms: _412  and  _413
REMARK  175  A    between atoms: _416  and  _418
REMARK  176  A    between atoms: _418  and  _419
REMARK  177  A    between atoms: _421  and  _423
REMARK  178  A    between atoms: _423  and  _424
REMARK  179  A    between atoms: _426  and  _428
REMARK  180  A    between atoms: _428  and  _429
REMARK  181  A    between atoms: _428  and  _431
REMARK  182  A    between atoms: _431  and  _432
REMARK  183  A    between atoms: _435  and  _437
REMARK  184  A    between atoms: _437  and  _438
REMARK  185  A    between atoms: _440  and  _442
REMARK  186  A    between atoms: _442  and  _443
REMARK  187  A    between atoms: _445  and  _447
REMARK  188  A    between atoms: _447  and  _448
REMARK  189  A    between atoms: _447  and  _450
REMARK  190  A    between atoms: _450  and  _451
REMARK  191  A    between atoms: _457  and  _459
REMARK  192  A    between atoms: _459  and  _460
REMARK  193  A    between atoms: _459  and  _462
REMARK  194  A    between atoms: _462  and  _463
REMARK  195  A    between atoms: _466  and  _468
REMARK  196  A    between atoms: _468  and  _469
REMARK  197  A    between atoms: _468  and  _471
REMARK  198  A    between atoms: _474  and  _476
REMARK  199  A    between atoms: _476  and  _477
REMARK  200  A    between atoms: _476  and  _479
REMARK  201  A    between atoms: _479  and  _480
REMARK  202  A    between atoms: _483  and  _485
REMARK  203  A    between atoms: _485  and  _486
REMARK  204  A    between atoms: _485  and  _488
REMARK  205  A    between atoms: _488  and  _489
REMARK  206  A    between atoms: _493  and  _494
REMARK  207  A    between atoms: _499  and  _501
REMARK  208  A    between atoms: _501  and  _502
REMARK  209  A    between atoms: _501  and  _504
REMARK  210  A    between atoms: _507  and  _509
REMARK  211  A    between atoms: _509  and  _510
REMARK  212  A    between atoms: _509  and  _512
REMARK  213  A    between atoms: _512  and  _513
REMARK  214  A    between atoms: _518  and  _520
REMARK  215  A    between atoms: _520  and  _521
REMARK  216  A    between atoms: _520  and  _523
REMARK  217  A    between atoms: _523  and  _524
REMARK  218  A    between atoms: _527  and  _529
REMARK  219  A    between atoms: _529  and  _530
REMARK  220  A    between atoms: _529  and  _532
REMARK  221  A    between atoms: _532  and  _533
REMARK  222  A    between atoms: _536  and  _538
REMARK  223  A    between atoms: _538  and  _539
REMARK  224  A    between atoms: _541  and  _543
REMARK  225  A    between atoms: _543  and  _544
REMARK  226  A    between atoms: _543  and  _546
REMARK  227  A    between atoms: _546  and  _547
REMARK  228  A    between atoms: _547  and  _548
REMARK  229  A    between atoms: _548  and  _549
REMARK                            x       y       z     vdW  Elec       q    Type
REMARK                         _______ _______ _______ _____ _____    ______ ____
ROOT
ATOM      1  CA  VAL A   1      17.723  -9.570  11.487  0.00  0.00    +0.133 C 
ENDROOT
BRANCH   1   2
ATOM      2  CB  VAL A   1      17.000  -8.711  12.562  0.00  0.00    +0.023 C 
ATOM      3  CG2 VAL A   1      16.386  -9.607  13.638  0.00  0.00    +0.002 C 
ATOM      4  CG1 VAL A   1      15.935  -7.834  11.917  0.00  0.00    +0.002 C 
ENDBRANCH   1   2
BRANCH   1   5
ATOM      5  N   VAL A   1      16.801 -10.506  10.830  0.00  0.00    -0.239 NA
ATOM      6  H   VAL A   1      16.469 -11.337  11.360  0.00  0.00    +0.142 HD
ENDBRANCH   1   5
BRANCH   1   7
ATOM      7  C   VAL A   1      18.859 -10.331  12.164  0.00  0.00    +0.224 C 
ATOM      8  O   VAL A   1      18.840 -11.561  12.253  0.00  0.00    -0.287 OA
ENDBRANCH   1   7
TORSDOF 3
REMARK  Name = ../refined-set-2016/1d4k/1d4k_pocket.pdb
REMARK  229 active torsions:
REMARK  status: ('A' for Active; 'I' for Inactive)
REMARK    1  A    between atoms: _1  and  _3
REMARK    2  A    between atoms: _3  and  _4
REMARK    3  A    between atoms: _3  and  _6
REMARK    4  A    between atoms: _6  and  _7
REMARK    5  A    between atoms: _7  and  _8
REMARK    6  A    between atoms: _8  and  _9
REMARK    7  A    between atoms: _18  and  _20
REMARK    8  A    between atoms: _20  and  _21
REMARK    9  A    between atoms: _20  and  _23
REMARK   10  A    between atoms: _23  and  _24
REMARK   11  A    between atoms: _27  and  _29
REMARK   12  A    between atoms: _29  and  _30
REMARK   13  A    between atoms: _29  and  _32
REMARK   14  A    between atoms: _32  and  _33
REMARK   15  A    between atoms: _36  and  _38
REMARK   16  A    between atoms: _38  and  _39
REMARK   17  A    between atoms: _38  and  _41
REMARK   18  A    between atoms: _41  and  _42
REMARK   19  A    between atoms: _45  and  _47
REMARK   20  A    between atoms: _47  and  _48
REMARK   21  A    between atoms: _47  and  _50
REMARK   22  A    between atoms: _50  and  _51
REMARK   23  A    between atoms: _54  and  _56
REMARK   24  A    between atoms: _56  and  _57
REMARK   25  A    between atoms: _56  and  _59
REMARK   26  A    between atoms: _59  and  _60
REMARK   27  A    between atoms: _63  and  _65
REMARK   28  A    between atoms: _65  and  _66
REMARK   29  A    between atoms: _68  and  _70
REMARK   30  A    between atoms: _70  and  _71
REMARK   31  A    between atoms: _74  and  _76
REMARK   32  A    between atoms: _76  and  _77
REMARK   33  A    between atoms: _76  and  _79
REMARK   34  A    between atoms: _79  and  _80
REMARK   35  A    between atoms: _83  and  _85
REMARK   36  A    between atoms: _85  and  _86
REMARK   37  A    between atoms: _85  and  _88
REMARK   38  A    between atoms: _88  and  _89
REMARK   39  A    between atoms: _92  and  _94
REMARK   40  A    between atoms: _94  and  _95
REMARK   41  A    between atoms: _94  and  _97
REMARK   42  A    between atoms: _97  and  _98
REMARK   43  A    between atoms: _101  and  _103
REMARK   44  A    between atoms: _103  and  _104
REMARK   45  A    between atoms: _103  and  _106
REMARK   46  A    between atoms: _109  and  _111
REMARK   47  A    between atoms: _111  and  _112
REMARK   48  A    between atoms: _111  and  _114
REMARK   49  A    between atoms: _114  and  _115
REMARK   50  A    between atoms: _118  and  _120
REMARK   51  A    between atoms: _120  and  _121
REMARK   52  A    between atoms: _120  and  _123
REMARK   53  A    between atoms: _123  and  _124
REMARK   54  A    between atoms: _124  and  _125
REMARK   55  A    between atoms: _127  and  _129
REMARK   56  A    between atoms: _129  and  _130
REMARK   57  A    between atoms: _129  and  _132
REMARK   58  A    between atoms: _132  and  _133
REMARK   59  A    between atoms: _136  and  _138
REMARK   60  A    between atoms: _138  and  _139
REMARK   61  A    between atoms: _141  and  _143
REMARK   62  A    between atoms: _143  and  _144
REMARK   63  A    between atoms: _146  and  _148
REMARK   64  A    between atoms: _148  and  _149
REMARK   65  A    between atoms: _148  and  _151
REMARK   66  A    between atoms: _151  and  _152
REMARK   67  A    between atoms: _155  and  _157
REMARK   68  A    between atoms: _157  and  _158
REMARK   69  A    between atoms: _160  and  _162
REMARK   70  A    between atoms: _162  and  _163
REMARK   71  A    between atoms: _165  and  _167
REMARK   72  A    between atoms: _167  and  _168
REMARK   73  A    between atoms: _167  and  _170
REMARK   74  A    between atoms: _170  and  _171
REMARK   75  A    between atoms: _174  and  _176
REMARK   76  A    between atoms: _176  and  _177
REMARK   77  A    between atoms: _176  and  _179
REMARK   78  A    between atoms: _182  and  _184
REMARK   79  A    between atoms: _184  and  _185
REMARK   80  A    between atoms: _184  and  _187
REMARK   81  A    between atoms: _187  and  _188
REMARK   82  A    between atoms: _191  and  _193
REMARK   83  A    between atoms: _193  and  _194
REMARK   84  A    between atoms: _193  and  _196
REMARK   85  A    between atoms: _196  and  _197
REMARK   86  A    between atoms: _201  and  _202
REMARK   87  A    between atoms: _207  and  _209
REMARK   88  A    between atoms: _209  and  _210
REMARK   89  A    between atoms: _209  and  _212
REMARK   90  A    between atoms: _215  and  _217
REMARK   91  A    between atoms: _217  and  _218
REMARK   92  A    between atoms: _217  and  _220
REMARK   93  A    between atoms: _220  and  _221
REMARK   94  A    between atoms: _226  and  _228
REMARK   95  A    between atoms: _228  and  _229
REMARK   96  A    between atoms: _228  and  _231
REMARK   97  A    between atoms: _231  and  _232
REMARK   98  A    between atoms: _235  and  _237
REMARK   99  A    between atoms: _237  and  _238
REMARK  100  A    between atoms: _237  and  _240
REMARK  101  A    between atoms: _240  and  _241
REMARK  102  A    between atoms: _244  and  _246
REMARK  103  A    between atoms: _246  and  _247
REMARK  104  A    between atoms: _249  and  _251
REMARK  105  A    between atoms: _251  and  _252
REMARK  106  A    between atoms: _251  and  _254
REMARK  107  A    between atoms: _254  and  _255
REMARK  108  A    between atoms: _255  and  _256
REMARK  109  A    between atoms: _256  and  _257
REMARK  110  A    between atoms: _266  and  _268
REMARK  111  A    between atoms: _268  and  _269
REMARK  112  A    between atoms: _268  and  _271
REMARK  113  A    between atoms: _271  and  _272
REMARK  114  A    between atoms: _277  and  _279
REMARK  115  A    between atoms: _279  and  _280
REMARK  116  A    between atoms: _279  and  _282
REMARK  117  A    between atoms: _282  and  _283
REMARK  118  A    between atoms: _283  and  _284
REMARK  119  A    between atoms: _284  and  _285
REMARK  120  A    between atoms: _294  and  _296
REMARK  121  A    between atoms: _296  and  _297
REMARK  122  A    between atoms: _296  and  _299
REMARK  123  A    between atoms: _299  and  _300
REMARK  124  A    between atoms: _303  and  _305
REMARK  125  A    between atoms: _305  and  _306
REMARK  126  A    between atoms: _305  and  _308
REMARK  127  A    between atoms: _308  and  _309
REMARK  128  A    between atoms: _312  and  _314
REMARK  129  A    between atoms: _314  and  _315
REMARK  130  A    between atoms: _314  and  _317
REMARK  131  A    between atoms: _317  and  _318
REMARK  132  A    between atoms: _321  and  _323
REMARK  133  A    between atoms: _323  and  _324
REMARK  134  A    between atoms: _323  and  _326
REMARK  135  A    between atoms: _326  and  _327
REMARK  136  A    between atoms: _330  and  _332
REMARK  137  A    between atoms: _332  and  _333
REMARK  138  A    between atoms: _332  and  _335
REMARK  139  A    between atoms: _335  and  _336
REMARK  140  A    between atoms: _339  and  _341
REMARK  141  A    between atoms: _341  and  _342
REMARK  142  A    between atoms: _344  and  _346
REMARK  143  A    between atoms: _346  and  _347
REMARK  144  A    between atoms: _350  and  _352
REMARK  145  A    between atoms: _352  and  _353
REMARK  146  A    between atoms: _352  and  _355
REMARK  147  A    between atoms: _355  and  _356
REMARK  148  A    between atoms: _359  and  _361
REMARK  149  A    between atoms: _361  and  _362
REMARK  150  A    between atoms: _361  and  _364
REMARK  151  A    between atoms: _364  and  _365
REMARK  152  A    between atoms: _368  and  _370
REMARK  153  A    between atoms: _370  and  _371
REMARK  154  A    between atoms: _370  and  _373
REMARK  155  A    between atoms: _373  and  _374
REMARK  156  A    between atoms: _377  and  _379
REMARK  157  A    between atoms: _379  and  _380
REMARK  158  A    between atoms: _379  and  _382
REMARK  159  A    between atoms: _385  and  _387
REMARK  160  A    between atoms: _387  and  _388
REMARK  161  A    between atoms: _387  and  _390
REMARK  162  A    between atoms: _390  and  _391
REMARK  163  A    between atoms: _391  and  _392
REMARK  164  A    between atoms: _392  and  _393
REMARK  165  A    between atoms: _393  and  _394
REMARK  166  A    between atoms: _398  and  _400
REMARK  167  A    between atoms: _400  and  _401
REMARK  168  A    between atoms: _400  and  _403
REMARK  169  A    between atoms: _403  and  _404
REMARK  170  A    between atoms: _404  and  _405
REMARK  171  A    between atoms: _407  and  _409
REMARK  172  A    between atoms: _409  and  _410
REMARK  173  A    between atoms: _409  and  _412
REMARK  174  A    between atoms: _412  and  _413
REMARK  175  A    between atoms: _416  and  _418
REMARK  176  A    between atoms: _418  and  _419
REMARK  177  A    between atoms: _421  and  _423
REMARK  178  A    between atoms: _423  and  _424
REMARK  179  A    between atoms: _426  and  _428
REMARK  180  A    between atoms: _428  and  _429
REMARK  181  A    between atoms: _428  and  _431
REMARK  182  A    between atoms: _431  and  _432
REMARK  183  A    between atoms: _435  and  _437
REMARK  184  A    between atoms: _437  and  _438
REMARK  185  A    between atoms: _440  and  _442
REMARK  186  A    between atoms: _442  and  _443
REMARK  187  A    between atoms: _445  and  _447
REMARK  188  A    between atoms: _447  and  _448
REMARK  189  A    between atoms: _447  and  _450
REMARK  190  A    between atoms: _450  and  _451
REMARK  191  A    between atoms: _457  and  _459
REMARK  192  A    between atoms: _459  and  _460
REMARK  193  A    between atoms: _459  and  _462
REMARK  194  A    between atoms: _462  and  _463
REMARK  195  A    between atoms: _466  and  _468
REMARK  196  A    between atoms: _468  and  _469
REMARK  197  A    between atoms: _468  and  _471
REMARK  198  A    between atoms: _474  and  _476
REMARK  199  A    between atoms: _476  and  _477
REMARK  200  A    between atoms: _476  and  _479
REMARK  201  A    between atoms: _479  and  _480
REMARK  202  A    between atoms: _483  and  _485
REMARK  203  A    between atoms: _485  and  _486
REMARK  204  A    between atoms: _485  and  _488
REMARK  205  A    between atoms: _488  and  _489
REMARK  206  A    between atoms: _493  and  _494
REMARK  207  A    between atoms: _499  and  _501
REMARK  208  A    between atoms: _501  and  _502
REMARK  209  A    between atoms: _501  and  _504
REMARK  210  A    between atoms: _507  and  _509
REMARK  211  A    between atoms: _509  and  _510
REMARK  212  A    between atoms: _509  and  _512
REMARK  213  A    between atoms: _512  and  _513
REMARK  214  A    between atoms: _518  and  _520
REMARK  215  A    between atoms: _520  and  _521
REMARK  216  A    between atoms: _520  and  _523
REMARK  217  A    between atoms: _523  and  _524
REMARK  218  A    between atoms: _527  and  _529
REMARK  219  A    between atoms: _529  and  _530
REMARK  220  A    between atoms: _529  and  _532
REMARK  221  A    between atoms: _532  and  _533
REMARK  222  A    between atoms: _536  and  _538
REMARK  223  A    between atoms: _538  and  _539
REMARK  224  A    between atoms: _541  and  _543
REMARK  225  A    between atoms: _543  and  _544
REMARK  226  A    between atoms: _543  and  _546
REMARK  227  A    between atoms: _546  and  _547
REMARK  228  A    between atoms: _547  and  _548
REMARK  229  A    between atoms: _548  and  _549
REMARK                            x       y       z     vdW  Elec       q    Type
REMARK                         _______ _______ _______ _____ _____    ______ ____
ROOT
ATOM      1  CA  LEU A   1      18.575  -6.234  16.261  0.00  0.00    +0.133 C 
ENDROOT
BRANCH   1   2
ATOM      2  N   LEU A   1      18.785  -5.486  17.506  0.00  0.00    -0.239 NA
ATOM      3  H   LEU A   1      18.056  -4.812  17.815  0.00  0.00    +0.142 HD
ENDBRANCH   1   2
BRANCH   1   4
ATOM      4  C   LEU A   1      18.939  -5.349  15.072  0.00  0.00    +0.224 C 
ATOM      5  O   LEU A   1      18.479  -4.212  14.974  0.00  0.00    -0.287 OA
ENDBRANCH   1   4
BRANCH   1   6
ATOM      6  CB  LEU A   1      17.112  -6.667  16.153  0.00  0.00    +0.025 C 
BRANCH   6   7
ATOM      7  CG  LEU A   1      16.539  -7.406  17.360  0.00  0.00    +0.002 C 
ATOM      8  CD2 LEU A   1      17.331  -8.677  17.611  0.00  0.00    +0.000 C 
ATOM      9  CD1 LEU A   1      15.070  -7.718  17.132  0.00  0.00    +0.000 C 
ENDBRANCH   6   7
ENDBRANCH   1   6
TORSDOF 4
REMARK  Name = ../refined-set-2016/1d4k/1d4k_pocket.pdb
REMARK  229 active torsions:
REMARK  status: ('A' for Active; 'I' for Inactive)
REMARK    1  A    between atoms: _1  and  _3
REMARK    2  A    between atoms: _3  and  _4
REMARK    3  A    between atoms: _3  and  _6
REMARK    4  A    between atoms: _6  and  _7
REMARK    5  A    between atoms: _7  and  _8
REMARK    6  A    between atoms: _8  and  _9
REMARK    7  A    between atoms: _18  and  _20
REMARK    8  A    between atoms: _20  and  _21
REMARK    9  A    between atoms: _20  and  _23
REMARK   10  A    between atoms: _23  and  _24
REMARK   11  A    between atoms: _27  and  _29
REMARK   12  A    between atoms: _29  and  _30
REMARK   13  A    between atoms: _29  and  _32
REMARK   14  A    between atoms: _32  and  _33
REMARK   15  A    between atoms: _36  and  _38
REMARK   16  A    between atoms: _38  and  _39
REMARK   17  A    between atoms: _38  and  _41
REMARK   18  A    between atoms: _41  and  _42
REMARK   19  A    between atoms: _45  and  _47
REMARK   20  A    between atoms: _47  and  _48
REMARK   21  A    between atoms: _47  and  _50
REMARK   22  A    between atoms: _50  and  _51
REMARK   23  A    between atoms: _54  and  _56
REMARK   24  A    between atoms: _56  and  _57
REMARK   25  A    between atoms: _56  and  _59
REMARK   26  A    between atoms: _59  and  _60
REMARK   27  A    between atoms: _63  and  _65
REMARK   28  A    between atoms: _65  and  _66
REMARK   29  A    between atoms: _68  and  _70
REMARK   30  A    between atoms: _70  and  _71
REMARK   31  A    between atoms: _74  and  _76
REMARK   32  A    between atoms: _76  and  _77
REMARK   33  A    between atoms: _76  and  _79
REMARK   34  A    between atoms: _79  and  _80
REMARK   35  A    between atoms: _83  and  _85
REMARK   36  A    between atoms: _85  and  _86
REMARK   37  A    between atoms: _85  and  _88
REMARK   38  A    between atoms: _88  and  _89
REMARK   39  A    between atoms: _92  and  _94
REMARK   40  A    between atoms: _94  and  _95
REMARK   41  A    between atoms: _94  and  _97
REMARK   42  A    between atoms: _97  and  _98
REMARK   43  A    between atoms: _101  and  _103
REMARK   44  A    between atoms: _103  and  _104
REMARK   45  A    between atoms: _103  and  _106
REMARK   46  A    between atoms: _109  and  _111
REMARK   47  A    between atoms: _111  and  _112
REMARK   48  A    between atoms: _111  and  _114
REMARK   49  A    between atoms: _114  and  _115
REMARK   50  A    between atoms: _118  and  _120
REMARK   51  A    between atoms: _120  and  _121
REMARK   52  A    between atoms: _120  and  _123
REMARK   53  A    between atoms: _123  and  _124
REMARK   54  A    between atoms: _124  and  _125
REMARK   55  A    between atoms: _127  and  _129
REMARK   56  A    between atoms: _129  and  _130
REMARK   57  A    between atoms: _129  and  _132
REMARK   58  A    between atoms: _132  and  _133
REMARK   59  A    between atoms: _136  and  _138
REMARK   60  A    between atoms: _138  and  _139
REMARK   61  A    between atoms: _141  and  _143
REMARK   62  A    between atoms: _143  and  _144
REMARK   63  A    between atoms: _146  and  _148
REMARK   64  A    between atoms: _148  and  _149
REMARK   65  A    between atoms: _148  and  _151
REMARK   66  A    between atoms: _151  and  _152
REMARK   67  A    between atoms: _155  and  _157
REMARK   68  A    between atoms: _157  and  _158
REMARK   69  A    between atoms: _160  and  _162
REMARK   70  A    between atoms: _162  and  _163
REMARK   71  A    between atoms: _165  and  _167
REMARK   72  A    between atoms: _167  and  _168
REMARK   73  A    between atoms: _167  and  _170
REMARK   74  A    between atoms: _170  and  _171
REMARK   75  A    between atoms: _174  and  _176
REMARK   76  A    between atoms: _176  and  _177
REMARK   77  A    between atoms: _176  and  _179
REMARK   78  A    between atoms: _182  and  _184
REMARK   79  A    between atoms: _184  and  _185
REMARK   80  A    between atoms: _184  and  _187
REMARK   81  A    between atoms: _187  and  _188
REMARK   82  A    between atoms: _191  and  _193
REMARK   83  A    between atoms: _193  and  _194
REMARK   84  A    between atoms: _193  and  _196
REMARK   85  A    between atoms: _196  and  _197
REMARK   86  A    between atoms: _201  and  _202
REMARK   87  A    between atoms: _207  and  _209
REMARK   88  A    between atoms: _209  and  _210
REMARK   89  A    between atoms: _209  and  _212
REMARK   90  A    between atoms: _215  and  _217
REMARK   91  A    between atoms: _217  and  _218
REMARK   92  A    between atoms: _217  and  _220
REMARK   93  A    between atoms: _220  and  _221
REMARK   94  A    between atoms: _226  and  _228
REMARK   95  A    between atoms: _228  and  _229
REMARK   96  A    between atoms: _228  and  _231
REMARK   97  A    between atoms: _231  and  _232
REMARK   98  A    between atoms: _235  and  _237
REMARK   99  A    between atoms: _237  and  _238
REMARK  100  A    between atoms: _237  and  _240
REMARK  101  A    between atoms: _240  and  _241
REMARK  102  A    between atoms: _244  and  _246
REMARK  103  A    between atoms: _246  and  _247
REMARK  104  A    between atoms: _249  and  _251
REMARK  105  A    between atoms: _251  and  _252
REMARK  106  A    between atoms: _251  and  _254
REMARK  107  A    between atoms: _254  and  _255
REMARK  108  A    between atoms: _255  and  _256
REMARK  109  A    between atoms: _256  and  _257
REMARK  110  A    between atoms: _266  and  _268
REMARK  111  A    between atoms: _268  and  _269
REMARK  112  A    between atoms: _268  and  _271
REMARK  113  A    between atoms: _271  and  _272
REMARK  114  A    between atoms: _277  and  _279
REMARK  115  A    between atoms: _279  and  _280
REMARK  116  A    between atoms: _279  and  _282
REMARK  117  A    between atoms: _282  and  _283
REMARK  118  A    between atoms: _283  and  _284
REMARK  119  A    between atoms: _284  and  _285
REMARK  120  A    between atoms: _294  and  _296
REMARK  121  A    between atoms: _296  and  _297
REMARK  122  A    between atoms: _296  and  _299
REMARK  123  A    between atoms: _299  and  _300
REMARK  124  A    between atoms: _303  and  _305
REMARK  125  A    between atoms: _305  and  _306
REMARK  126  A    between atoms: _305  and  _308
REMARK  127  A    between atoms: _308  and  _309
REMARK  128  A    between atoms: _312  and  _314
REMARK  129  A    between atoms: _314  and  _315
REMARK  130  A    between atoms: _314  and  _317
REMARK  131  A    between atoms: _317  and  _318
REMARK  132  A    between atoms: _321  and  _323
REMARK  133  A    between atoms: _323  and  _324
REMARK  134  A    between atoms: _323  and  _326
REMARK  135  A    between atoms: _326  and  _327
REMARK  136  A    between atoms: _330  and  _332
REMARK  137  A    between atoms: _332  and  _333
REMARK  138  A    between atoms: _332  and  _335
REMARK  139  A    between atoms: _335  and  _336
REMARK  140  A    between atoms: _339  and  _341
REMARK  141  A    between atoms: _341  and  _342
REMARK  142  A    between atoms: _344  and  _346
REMARK  143  A    between atoms: _346  and  _347
REMARK  144  A    between atoms: _350  and  _352
REMARK  145  A    between atoms: _352  and  _353
REMARK  146  A    between atoms: _352  and  _355
REMARK  147  A    between atoms: _355  and  _356
REMARK  148  A    between atoms: _359  and  _361
REMARK  149  A    between atoms: _361  and  _362
REMARK  150  A    between atoms: _361  and  _364
REMARK  151  A    between atoms: _364  and  _365
REMARK  152  A    between atoms: _368  and  _370
REMARK  153  A    between atoms: _370  and  _371
REMARK  154  A    between atoms: _370  and  _373
REMARK  155  A    between atoms: _373  and  _374
REMARK  156  A    between atoms: _377  and  _379
REMARK  157  A    between atoms: _379  and  _380
REMARK  158  A    between atoms: _379  and  _382
REMARK  159  A    between atoms: _385  and  _387
REMARK  160  A    between atoms: _387  and  _388
REMARK  161  A    between atoms: _387  and  _390
REMARK  162  A    between atoms: _390  and  _391
REMARK  163  A    between atoms: _391  and  _392
REMARK  164  A    between atoms: _392  and  _393
REMARK  165  A    between atoms: _393  and  _394
REMARK  166  A    between atoms: _398  and  _400
REMARK  167  A    between atoms: _400  and  _401
REMARK  168  A    between atoms: _400  and  _403
REMARK  169  A    between atoms: _403  and  _404
REMARK  170  A    between atoms: _404  and  _405
REMARK  171  A    between atoms: _407  and  _409
REMARK  172  A    between atoms: _409  and  _410
REMARK  173  A    between atoms: _409  and  _412
REMARK  174  A    between atoms: _412  and  _413
REMARK  175  A    between atoms: _416  and  _418
REMARK  176  A    between atoms: _418  and  _419
REMARK  177  A    between atoms: _421  and  _423
REMARK  178  A    between atoms: _423  and  _424
REMARK  179  A    between atoms: _426  and  _428
REMARK  180  A    between atoms: _428  and  _429
REMARK  181  A    between atoms: _428  and  _431
REMARK  182  A    between atoms: _431  and  _432
REMARK  183  A    between atoms: _435  and  _437
REMARK  184  A    between atoms: _437  and  _438
REMARK  185  A    between atoms: _440  and  _442
REMARK  186  A    between atoms: _442  and  _443
REMARK  187  A    between atoms: _445  and  _447
REMARK  188  A    between atoms: _447  and  _448
REMARK  189  A    between atoms: _447  and  _450
REMARK  190  A    between atoms: _450  and  _451
REMARK  191  A    between atoms: _457  and  _459
REMARK  192  A    between atoms: _459  and  _460
REMARK  193  A    between atoms: _459  and  _462
REMARK  194  A    between atoms: _462  and  _463
REMARK  195  A    between atoms: _466  and  _468
REMARK  196  A    between atoms: _468  and  _469
REMARK  197  A    between atoms: _468  and  _471
REMARK  198  A    between atoms: _474  and  _476
REMARK  199  A    between atoms: _476  and  _477
REMARK  200  A    between atoms: _476  and  _479
REMARK  201  A    between atoms: _479  and  _480
REMARK  202  A    between atoms: _483  and  _485
REMARK  203  A    between atoms: _485  and  _486
REMARK  204  A    between atoms: _485  and  _488
REMARK  205  A    between atoms: _488  and  _489
REMARK  206  A    between atoms: _493  and  _494
REMARK  207  A    between atoms: _499  and  _501
REMARK  208  A    between atoms: _501  and  _502
REMARK  209  A    between atoms: _501  and  _504
REMARK  210  A    between atoms: _507  and  _509
REMARK  211  A    between atoms: _509  and  _510
REMARK  212  A    between atoms: _509  and  _512
REMARK  213  A    between atoms: _512  and  _513
REMARK  214  A    between atoms: _518  and  _520
REMARK  215  A    between atoms: _520  and  _521
REMARK  216  A    between atoms: _520  and  _523
REMARK  217  A    between atoms: _523  and  _524
REMARK  218  A    between atoms: _527  and  _529
REMARK  219  A    between atoms: _529  and  _530
REMARK  220  A    between atoms: _529  and  _532
REMARK  221  A    between atoms: _532  and  _533
REMARK  222  A    between atoms: _536  and  _538
REMARK  223  A    between atoms: _538  and  _539
REMARK  224  A    between atoms: _541  and  _543
REMARK  225  A    between atoms: _543  and  _544
REMARK  226  A    between atoms: _543  and  _546
REMARK  227  A    between atoms: _546  and  _547
REMARK  228  A    between atoms: _547  and  _548
REMARK  229  A    between atoms: _548  and  _549
REMARK                            x       y       z     vdW  Elec       q    Type
REMARK                         _______ _______ _______ _____ _____    ______ ____
ROOT
ATOM      1  CA  ILE A   5      13.374   1.741  16.632  0.00  0.00    +0.149 C 
ENDROOT
BRANCH   1   3
ATOM      2  C   ASN A   4      14.573   3.049  14.961  0.00  0.00    +0.241 C 
ATOM      3  N   ILE A   5      14.424   1.908  15.621  0.00  0.00    -0.297 N 
ATOM      4  H   ILE A   5      15.065   1.115  15.417  0.00  0.00    +0.150 HD
ATOM      5  O   ASN A   4      13.885   4.044  15.181  0.00  0.00    -0.273 OA
BRANCH   2   6
ATOM      6  CA  ASN A   4      15.672   3.078  13.909  0.00  0.00    +0.158 C 
BRANCH   6   8
ATOM      7  C   VAL A   3      14.267   2.938  11.904  0.00  0.00    +0.241 C 
ATOM      8  N   ASN A   4      15.118   3.631  12.658  0.00  0.00    -0.297 N 
ATOM      9  H   ASN A   4      15.399   4.586  12.358  0.00  0.00    +0.150 HD
ATOM     10  O   VAL A   3      13.949   1.775  12.155  0.00  0.00    -0.273 OA
BRANCH   7  11
ATOM     11  CA  VAL A   3      13.738   3.634  10.646  0.00  0.00    +0.149 C 
BRANCH  11  13
ATOM     12  C   PRO A   2      13.462   2.974   8.302  0.00  0.00    +0.241 C 
ATOM     13  N   VAL A   3      13.449   2.650   9.593  0.00  0.00    -0.297 N 
ATOM     14  H   VAL A   3      13.228   1.671   9.865  0.00  0.00    +0.150 HD
ATOM     15  O   PRO A   2      13.760   4.096   7.895  0.00  0.00    -0.273 OA
BRANCH  12  22
ATOM     16  C   THR A   1      14.392  -0.037   8.250  0.00  0.00    +0.244 C 
ATOM     17  O   THR A   1      15.463   0.545   8.071  0.00  0.00    -0.273 OA
ATOM     18  N   PRO A   2      13.215   0.512   7.898  0.00  0.00    -0.272 N 
ATOM     19  CD  PRO A   2      11.887  -0.125   7.958  0.00  0.00    +0.094 C 
ATOM     20  CG  PRO A   2      10.959   1.061   7.868  0.00  0.00    +0.024 C 
ATOM     21  CB  PRO A   2      11.656   1.931   6.877  0.00  0.00    +0.031 C 
ATOM     22  CA  PRO A   2      13.119   1.856   7.319  0.00  0.00    +0.152 C 
BRANCH  16  23
ATOM     23  CA  THR A   1      14.358  -1.448   8.845  0.00  0.00    +0.172 C 
BRANCH  23  24
ATOM     24  N   THR A   1      15.484  -2.248   8.336  0.00  0.00    -0.236 NA
ATOM     25  H   THR A   1      16.352  -2.322   8.904  0.00  0.00    +0.142 HD
ENDBRANCH  23  24
BRANCH  23  26
ATOM     26  CB  THR A   1      14.368  -1.371  10.400  0.00  0.00    +0.135 C 
ATOM     27  CG2 THR A   1      15.644  -0.719  10.910  0.00  0.00    +0.034 C 
BRANCH  26  28
ATOM     28  OG1 THR A   1      13.240  -0.611  10.852  0.00  0.00    -0.383 OA
ATOM     29  HG1 THR A   1      13.288   0.304  10.477  0.00  0.00    +0.210 HD
ENDBRANCH  26  28
ENDBRANCH  23  26
ENDBRANCH  16  23
ENDBRANCH  12  22
ENDBRANCH  11  13
BRANCH  11  30
ATOM     30  CB  VAL A   3      12.448   4.449  10.981  0.00  0.00    +0.027 C 
ATOM     31  CG2 VAL A   3      12.736   5.542  11.994  0.00  0.00    +0.002 C 
ATOM     32  CG1 VAL A   3      11.351   3.526  11.480  0.00  0.00    +0.002 C 
ENDBRANCH  11  30
ENDBRANCH   7  11
ENDBRANCH   6   8
BRANCH   6  33
ATOM     33  CB  ASN A   4      16.843   3.921  14.404  0.00  0.00    +0.114 C 
BRANCH  33  34
ATOM     34  CG  ASN A   4      18.023   3.859  13.478  0.00  0.00    +0.222 C 
ATOM     35  OD1 ASN A   4      18.508   2.778  13.153  0.00  0.00    -0.275 OA
ATOM     36  ND2 ASN A   4      18.490   5.017  13.031  0.00  0.00    -0.329 N 
ATOM     37 HD21 ASN A   4      18.047   5.908  13.334  0.00  0.00    +0.145 HD
ATOM     38 HD22 ASN A   4      19.299   5.034  12.378  0.00  0.00    +0.145 HD
ENDBRANCH  33  34
ENDBRANCH   6  33
ENDBRANCH   2   6
ENDBRANCH   1   3
BRANCH   1  39
ATOM     39  C   ILE A   5      13.926   1.382  18.004  0.00  0.00    +0.241 C 
ATOM     40  N   ILE A   6      13.635   2.223  18.993  0.00  0.00    -0.297 N 
ATOM     41  H   ILE A   6      13.092   3.086  18.786  0.00  0.00    +0.150 HD
ATOM     42  O   ILE A   5      14.632   0.385  18.153  0.00  0.00    -0.273 OA
BRANCH  40  43
ATOM     43  CA  ILE A   6      14.066   1.956  20.372  0.00  0.00    +0.149 C 
BRANCH  43  44
ATOM     44  C   ILE A   6      12.881   1.274  21.037  0.00  0.00    +0.241 C 
ATOM     45  N   GLY A   7      13.054  -0.002  21.368  0.00  0.00    -0.295 N 
ATOM     46  H   GLY A   7      13.969  -0.460  21.183  0.00  0.00    +0.150 HD
ATOM     47  O   ILE A   6      11.823   1.882  21.206  0.00  0.00    -0.273 OA
BRANCH  45  48
ATOM     48  CA  GLY A   7      11.983  -0.766  21.984  0.00  0.00    +0.176 C 
BRANCH  48  49
ATOM     49  C   GLY A   7      11.932  -0.751  23.497  0.00  0.00    +0.243 C 
ATOM     50  O   GLY A   7      12.743  -0.099  24.154  0.00  0.00    -0.273 OA
ATOM     51  N   ARG A   8      10.981  -1.504  24.040  0.00  0.00    -0.298 N 
ATOM     52  H   ARG A   8      10.358  -2.048  23.410  0.00  0.00    +0.150 HD
BRANCH  51  53
ATOM     53  CA  ARG A   8      10.770  -1.602  25.492  0.00  0.00    +0.137 C 
BRANCH  53  54
ATOM     54  C   ARG A   8      11.946  -2.154  26.278  0.00  0.00    +0.227 C 
ATOM     55  O   ARG A   8      12.112  -1.816  27.450  0.00  0.00    -0.286 OA
ENDBRANCH  53  54
BRANCH  53  56
ATOM     56  CB  ARG A   8       9.522  -2.431  25.803  0.00  0.00    +0.031 C 
BRANCH  56  57
ATOM     57  CG  ARG A   8       8.208  -1.749  25.450  0.00  0.00    +0.045 C 
BRANCH  57  58
ATOM     58  CD  ARG A   8       7.024  -2.489  26.055  0.00  0.00    +0.174 C 
BRANCH  58  59
ATOM     59  NE  ARG A   8       6.937  -3.880  25.586  0.00  0.00    -0.265 N 
ATOM     60  CZ  ARG A   8       7.358  -4.935  26.277  0.00  0.00    +0.342 C 
ATOM     61  NH2 ARG A   8       7.897  -4.775  27.479  0.00  0.00    -0.292 N 
ATOM     62 HH21 ARG A   8       8.225  -5.603  28.016  0.00  0.00    +0.255 HD
ATOM     63 HH22 ARG A   8       7.991  -3.822  27.884  0.00  0.00    +0.255 HD
ATOM     64  NH1 ARG A   8       7.263  -6.152  25.757  0.00  0.00    -0.292 N 
ATOM     65 HH11 ARG A   8       7.593  -6.976  26.299  0.00  0.00    +0.255 HD
ATOM     66 HH12 ARG A   8       6.859  -6.282  24.808  0.00  0.00    +0.255 HD
ATOM     67  HE  ARG A   8       6.517  -4.050  24.650  0.00  0.00    +0.259 HD
ENDBRANCH  58  59
ENDBRANCH  57  58
ENDBRANCH  56  57
ENDBRANCH  53  56
ENDBRANCH  51  53
ENDBRANCH  48  49
ENDBRANCH  45  48
ENDBRANCH  43  44
BRANCH  43  68
ATOM     68  CB  ILE A   6      14.419   3.248  21.135  0.00  0.00    +0.027 C 
ATOM     69  CG2 ILE A   6      14.786   2.919  22.575  0.00  0.00    +0.002 C 
BRANCH  68  70
ATOM     70  CG1 ILE A   6      15.587   3.962  20.452  0.00  0.00    +0.002 C 
ATOM     71  CD1 ILE A   6      16.868   3.148  20.407  0.00  0.00    +0.000 C 
ENDBRANCH  68  70
ENDBRANCH  43  68
ENDBRANCH  40  43
ENDBRANCH   1  39
BRANCH   1  72
ATOM     72  CB  ILE A   5      12.377   0.637  16.189  0.00  0.00    +0.027 C 
ATOM     73  CG2 ILE A   5      11.325   0.381  17.269  0.00  0.00    +0.002 C 
BRANCH  72  74
ATOM     74  CG1 ILE A   5      11.719   1.037  14.867  0.00  0.00    +0.002 C 
ATOM     75  CD1 ILE A   5      10.838  -0.026  14.279  0.00  0.00    +0.000 C 
ENDBRANCH  72  74
ENDBRANCH   1  72
TORSDOF 28
REMARK  Name = ../refined-set-2016/1d4k/1d4k_pocket.pdb
REMARK  229 active torsions:
REMARK  status: ('A' for Active; 'I' for Inactive)
REMARK    1  A    between atoms: _1  and  _3
REMARK    2  A    between atoms: _3  and  _4
REMARK    3  A    between atoms: _3  and  _6
REMARK    4  A    between atoms: _6  and  _7
REMARK    5  A    between atoms: _7  and  _8
REMARK    6  A    between atoms: _8  and  _9
REMARK    7  A    between atoms: _18  and  _20
REMARK    8  A    between atoms: _20  and  _21
REMARK    9  A    between atoms: _20  and  _23
REMARK   10  A    between atoms: _23  and  _24
REMARK   11  A    between atoms: _27  and  _29
REMARK   12  A    between atoms: _29  and  _30
REMARK   13  A    between atoms: _29  and  _32
REMARK   14  A    between atoms: _32  and  _33
REMARK   15  A    between atoms: _36  and  _38
REMARK   16  A    between atoms: _38  and  _39
REMARK   17  A    between atoms: _38  and  _41
REMARK   18  A    between atoms: _41  and  _42
REMARK   19  A    between atoms: _45  and  _47
REMARK   20  A    between atoms: _47  and  _48
REMARK   21  A    between atoms: _47  and  _50
REMARK   22  A    between atoms: _50  and  _51
REMARK   23  A    between atoms: _54  and  _56
REMARK   24  A    between atoms: _56  and  _57
REMARK   25  A    between atoms: _56  and  _59
REMARK   26  A    between atoms: _59  and  _60
REMARK   27  A    between atoms: _63  and  _65
REMARK   28  A    between atoms: _65  and  _66
REMARK   29  A    between atoms: _68  and  _70
REMARK   30  A    between atoms: _70  and  _71
REMARK   31  A    between atoms: _74  and  _76
REMARK   32  A    between atoms: _76  and  _77
REMARK   33  A    between atoms: _76  and  _79
REMARK   34  A    between atoms: _79  and  _80
REMARK   35  A    between atoms: _83  and  _85
REMARK   36  A    between atoms: _85  and  _86
REMARK   37  A    between atoms: _85  and  _88
REMARK   38  A    between atoms: _88  and  _89
REMARK   39  A    between atoms: _92  and  _94
REMARK   40  A    between atoms: _94  and  _95
REMARK   41  A    between atoms: _94  and  _97
REMARK   42  A    between atoms: _97  and  _98
REMARK   43  A    between atoms: _101  and  _103
REMARK   44  A    between atoms: _103  and  _104
REMARK   45  A    between atoms: _103  and  _106
REMARK   46  A    between atoms: _109  and  _111
REMARK   47  A    between atoms: _111  and  _112
REMARK   48  A    between atoms: _111  and  _114
REMARK   49  A    between atoms: _114  and  _115
REMARK   50  A    between atoms: _118  and  _120
REMARK   51  A    between atoms: _120  and  _121
REMARK   52  A    between atoms: _120  and  _123
REMARK   53  A    between atoms: _123  and  _124
REMARK   54  A    between atoms: _124  and  _125
REMARK   55  A    between atoms: _127  and  _129
REMARK   56  A    between atoms: _129  and  _130
REMARK   57  A    between atoms: _129  and  _132
REMARK   58  A    between atoms: _132  and  _133
REMARK   59  A    between atoms: _136  and  _138
REMARK   60  A    between atoms: _138  and  _139
REMARK   61  A    between atoms: _141  and  _143
REMARK   62  A    between atoms: _143  and  _144
REMARK   63  A    between atoms: _146  and  _148
REMARK   64  A    between atoms: _148  and  _149
REMARK   65  A    between atoms: _148  and  _151
REMARK   66  A    between atoms: _151  and  _152
REMARK   67  A    between atoms: _155  and  _157
REMARK   68  A    between atoms: _157  and  _158
REMARK   69  A    between atoms: _160  and  _162
REMARK   70  A    between atoms: _162  and  _163
REMARK   71  A    between atoms: _165  and  _167
REMARK   72  A    between atoms: _167  and  _168
REMARK   73  A    between atoms: _167  and  _170
REMARK   74  A    between atoms: _170  and  _171
REMARK   75  A    between atoms: _174  and  _176
REMARK   76  A    between atoms: _176  and  _177
REMARK   77  A    between atoms: _176  and  _179
REMARK   78  A    between atoms: _182  and  _184
REMARK   79  A    between atoms: _184  and  _185
REMARK   80  A    between atoms: _184  and  _187
REMARK   81  A    between atoms: _187  and  _188
REMARK   82  A    between atoms: _191  and  _193
REMARK   83  A    between atoms: _193  and  _194
REMARK   84  A    between atoms: _193  and  _196
REMARK   85  A    between atoms: _196  and  _197
REMARK   86  A    between atoms: _201  and  _202
REMARK   87  A    between atoms: _207  and  _209
REMARK   88  A    between atoms: _209  and  _210
REMARK   89  A    between atoms: _209  and  _212
REMARK   90  A    between atoms: _215  and  _217
REMARK   91  A    between atoms: _217  and  _218
REMARK   92  A    between atoms: _217  and  _220
REMARK   93  A    between atoms: _220  and  _221
REMARK   94  A    between atoms: _226  and  _228
REMARK   95  A    between atoms: _228  and  _229
REMARK   96  A    between atoms: _228  and  _231
REMARK   97  A    between atoms: _231  and  _232
REMARK   98  A    between atoms: _235  and  _237
REMARK   99  A    between atoms: _237  and  _238
REMARK  100  A    between atoms: _237  and  _240
REMARK  101  A    between atoms: _240  and  _241
REMARK  102  A    between atoms: _244  and  _246
REMARK  103  A    between atoms: _246  and  _247
REMARK  104  A    between atoms: _249  and  _251
REMARK  105  A    between atoms: _251  and  _252
REMARK  106  A    between atoms: _251  and  _254
REMARK  107  A    between atoms: _254  and  _255
REMARK  108  A    between atoms: _255  and  _256
REMARK  109  A    between atoms: _256  and  _257
REMARK  110  A    between atoms: _266  and  _268
REMARK  111  A    between atoms: _268  and  _269
REMARK  112  A    between atoms: _268  and  _271
REMARK  113  A    between atoms: _271  and  _272
REMARK  114  A    between atoms: _277  and  _279
REMARK  115  A    between atoms: _279  and  _280
REMARK  116  A    between atoms: _279  and  _282
REMARK  117  A    between atoms: _282  and  _283
REMARK  118  A    between atoms: _283  and  _284
REMARK  119  A    between atoms: _284  and  _285
REMARK  120  A    between atoms: _294  and  _296
REMARK  121  A    between atoms: _296  and  _297
REMARK  122  A    between atoms: _296  and  _299
REMARK  123  A    between atoms: _299  and  _300
REMARK  124  A    between atoms: _303  and  _305
REMARK  125  A    between atoms: _305  and  _306
REMARK  126  A    between atoms: _305  and  _308
REMARK  127  A    between atoms: _308  and  _309
REMARK  128  A    between atoms: _312  and  _314
REMARK  129  A    between atoms: _314  and  _315
REMARK  130  A    between atoms: _314  and  _317
REMARK  131  A    between atoms: _317  and  _318
REMARK  132  A    between atoms: _321  and  _323
REMARK  133  A    between atoms: _323  and  _324
REMARK  134  A    between atoms: _323  and  _326
REMARK  135  A    between atoms: _326  and  _327
REMARK  136  A    between atoms: _330  and  _332
REMARK  137  A    between atoms: _332  and  _333
REMARK  138  A    between atoms: _332  and  _335
REMARK  139  A    between atoms: _335  and  _336
REMARK  140  A    between atoms: _339  and  _341
REMARK  141  A    between atoms: _341  and  _342
REMARK  142  A    between atoms: _344  and  _346
REMARK  143  A    between atoms: _346  and  _347
REMARK  144  A    between atoms: _350  and  _352
REMARK  145  A    between atoms: _352  and  _353
REMARK  146  A    between atoms: _352  and  _355
REMARK  147  A    between atoms: _355  and  _356
REMARK  148  A    between atoms: _359  and  _361
REMARK  149  A    between atoms: _361  and  _362
REMARK  150  A    between atoms: _361  and  _364
REMARK  151  A    between atoms: _364  and  _365
REMARK  152  A    between atoms: _368  and  _370
REMARK  153  A    between atoms: _370  and  _371
REMARK  154  A    between atoms: _370  and  _373
REMARK  155  A    between atoms: _373  and  _374
REMARK  156  A    between atoms: _377  and  _379
REMARK  157  A    between atoms: _379  and  _380
REMARK  158  A    between atoms: _379  and  _382
REMARK  159  A    between atoms: _385  and  _387
REMARK  160  A    between atoms: _387  and  _388
REMARK  161  A    between atoms: _387  and  _390
REMARK  162  A    between atoms: _390  and  _391
REMARK  163  A    between atoms: _391  and  _392
REMARK  164  A    between atoms: _392  and  _393
REMARK  165  A    between atoms: _393  and  _394
REMARK  166  A    between atoms: _398  and  _400
REMARK  167  A    between atoms: _400  and  _401
REMARK  168  A    between atoms: _400  and  _403
REMARK  169  A    between atoms: _403  and  _404
REMARK  170  A    between atoms: _404  and  _405
REMARK  171  A    between atoms: _407  and  _409
REMARK  172  A    between atoms: _409  and  _410
REMARK  173  A    between atoms: _409  and  _412
REMARK  174  A    between atoms: _412  and  _413
REMARK  175  A    between atoms: _416  and  _418
REMARK  176  A    between atoms: _418  and  _419
REMARK  177  A    between atoms: _421  and  _423
REMARK  178  A    between atoms: _423  and  _424
REMARK  179  A    between atoms: _426  and  _428
REMARK  180  A    between atoms: _428  and  _429
REMARK  181  A    between atoms: _428  and  _431
REMARK  182  A    between atoms: _431  and  _432
REMARK  183  A    between atoms: _435  and  _437
REMARK  184  A    between atoms: _437  and  _438
REMARK  185  A    between atoms: _440  and  _442
REMARK  186  A    between atoms: _442  and  _443
REMARK  187  A    between atoms: _445  and  _447
REMARK  188  A    between atoms: _447  and  _448
REMARK  189  A    between atoms: _447  and  _450
REMARK  190  A    between atoms: _450  and  _451
REMARK  191  A    between atoms: _457  and  _459
REMARK  192  A    between atoms: _459  and  _460
REMARK  193  A    between atoms: _459  and  _462
REMARK  194  A    between atoms: _462  and  _463
REMARK  195  A    between atoms: _466  and  _468
REMARK  196  A    between atoms: _468  and  _469
REMARK  197  A    between atoms: _468  and  _471
REMARK  198  A    between atoms: _474  and  _476
REMARK  199  A    between atoms: _476  and  _477
REMARK  200  A    between atoms: _476  and  _479
REMARK  201  A    between atoms: _479  and  _480
REMARK  202  A    between atoms: _483  and  _485
REMARK  203  A    between atoms: _485  and  _486
REMARK  204  A    between atoms: _485  and  _488
REMARK  205  A    between atoms: _488  and  _489
REMARK  206  A    between atoms: _493  and  _494
REMARK  207  A    between atoms: _499  and  _501
REMARK  208  A    between atoms: _501  and  _502
REMARK  209  A    between atoms: _501  and  _504
REMARK  210  A    between atoms: _507  and  _509
REMARK  211  A    between atoms: _509  and  _510
REMARK  212  A    between atoms: _509  and  _512
REMARK  213  A    between atoms: _512  and  _513
REMARK  214  A    between atoms: _518  and  _520
REMARK  215  A    between atoms: _520  and  _521
REMARK  216  A    between atoms: _520  and  _523
REMARK  217  A    between atoms: _523  and  _524
REMARK  218  A    between atoms: _527  and  _529
REMARK  219  A    between atoms: _529  and  _530
REMARK  220  A    between atoms: _529  and  _532
REMARK  221  A    between atoms: _532  and  _533
REMARK  222  A    between atoms: _536  and  _538
REMARK  223  A    between atoms: _538  and  _539
REMARK  224  A    between atoms: _541  and  _543
REMARK  225  A    between atoms: _543  and  _544
REMARK  226  A    between atoms: _543  and  _546
REMARK  227  A    between atoms: _546  and  _547
REMARK  228  A    between atoms: _547  and  _548
REMARK  229  A    between atoms: _548  and  _549
REMARK                            x       y       z     vdW  Elec       q    Type
REMARK                         _______ _______ _______ _____ _____    ______ ____
ROOT
ATOM      1  O   HOH     1      -5.983   5.720  12.181  0.00  0.00    +0.000 OA
ENDROOT
TORSDOF 0
REMARK  Name = ../refined-set-2016/1d4k/1d4k_pocket.pdb
REMARK  229 active torsions:
REMARK  status: ('A' for Active; 'I' for Inactive)
REMARK    1  A    between atoms: _1  and  _3
REMARK    2  A    between atoms: _3  and  _4
REMARK    3  A    between atoms: _3  and  _6
REMARK    4  A    between atoms: _6  and  _7
REMARK    5  A    between atoms: _7  and  _8
REMARK    6  A    between atoms: _8  and  _9
REMARK    7  A    between atoms: _18  and  _20
REMARK    8  A    between atoms: _20  and  _21
REMARK    9  A    between atoms: _20  and  _23
REMARK   10  A    between atoms: _23  and  _24
REMARK   11  A    between atoms: _27  and  _29
REMARK   12  A    between atoms: _29  and  _30
REMARK   13  A    between atoms: _29  and  _32
REMARK   14  A    between atoms: _32  and  _33
REMARK   15  A    between atoms: _36  and  _38
REMARK   16  A    between atoms: _38  and  _39
REMARK   17  A    between atoms: _38  and  _41
REMARK   18  A    between atoms: _41  and  _42
REMARK   19  A    between atoms: _45  and  _47
REMARK   20  A    between atoms: _47  and  _48
REMARK   21  A    between atoms: _47  and  _50
REMARK   22  A    between atoms: _50  and  _51
REMARK   23  A    between atoms: _54  and  _56
REMARK   24  A    between atoms: _56  and  _57
REMARK   25  A    between atoms: _56  and  _59
REMARK   26  A    between atoms: _59  and  _60
REMARK   27  A    between atoms: _63  and  _65
REMARK   28  A    between atoms: _65  and  _66
REMARK   29  A    between atoms: _68  and  _70
REMARK   30  A    between atoms: _70  and  _71
REMARK   31  A    between atoms: _74  and  _76
REMARK   32  A    between atoms: _76  and  _77
REMARK   33  A    between atoms: _76  and  _79
REMARK   34  A    between atoms: _79  and  _80
REMARK   35  A    between atoms: _83  and  _85
REMARK   36  A    between atoms: _85  and  _86
REMARK   37  A    between atoms: _85  and  _88
REMARK   38  A    between atoms: _88  and  _89
REMARK   39  A    between atoms: _92  and  _94
REMARK   40  A    between atoms: _94  and  _95
REMARK   41  A    between atoms: _94  and  _97
REMARK   42  A    between atoms: _97  and  _98
REMARK   43  A    between atoms: _101  and  _103
REMARK   44  A    between atoms: _103  and  _104
REMARK   45  A    between atoms: _103  and  _106
REMARK   46  A    between atoms: _109  and  _111
REMARK   47  A    between atoms: _111  and  _112
REMARK   48  A    between atoms: _111  and  _114
REMARK   49  A    between atoms: _114  and  _115
REMARK   50  A    between atoms: _118  and  _120
REMARK   51  A    between atoms: _120  and  _121
REMARK   52  A    between atoms: _120  and  _123
REMARK   53  A    between atoms: _123  and  _124
REMARK   54  A    between atoms: _124  and  _125
REMARK   55  A    between atoms: _127  and  _129
REMARK   56  A    between atoms: _129  and  _130
REMARK   57  A    between atoms: _129  and  _132
REMARK   58  A    between atoms: _132  and  _133
REMARK   59  A    between atoms: _136  and  _138
REMARK   60  A    between atoms: _138  and  _139
REMARK   61  A    between atoms: _141  and  _143
REMARK   62  A    between atoms: _143  and  _144
REMARK   63  A    between atoms: _146  and  _148
REMARK   64  A    between atoms: _148  and  _149
REMARK   65  A    between atoms: _148  and  _151
REMARK   66  A    between atoms: _151  and  _152
REMARK   67  A    between atoms: _155  and  _157
REMARK   68  A    between atoms: _157  and  _158
REMARK   69  A    between atoms: _160  and  _162
REMARK   70  A    between atoms: _162  and  _163
REMARK   71  A    between atoms: _165  and  _167
REMARK   72  A    between atoms: _167  and  _168
REMARK   73  A    between atoms: _167  and  _170
REMARK   74  A    between atoms: _170  and  _171
REMARK   75  A    between atoms: _174  and  _176
REMARK   76  A    between atoms: _176  and  _177
REMARK   77  A    between atoms: _176  and  _179
REMARK   78  A    between atoms: _182  and  _184
REMARK   79  A    between atoms: _184  and  _185
REMARK   80  A    between atoms: _184  and  _187
REMARK   81  A    between atoms: _187  and  _188
REMARK   82  A    between atoms: _191  and  _193
REMARK   83  A    between atoms: _193  and  _194
REMARK   84  A    between atoms: _193  and  _196
REMARK   85  A    between atoms: _196  and  _197
REMARK   86  A    between atoms: _201  and  _202
REMARK   87  A    between atoms: _207  and  _209
REMARK   88  A    between atoms: _209  and  _210
REMARK   89  A    between atoms: _209  and  _212
REMARK   90  A    between atoms: _215  and  _217
REMARK   91  A    between atoms: _217  and  _218
REMARK   92  A    between atoms: _217  and  _220
REMARK   93  A    between atoms: _220  and  _221
REMARK   94  A    between atoms: _226  and  _228
REMARK   95  A    between atoms: _228  and  _229
REMARK   96  A    between atoms: _228  and  _231
REMARK   97  A    between atoms: _231  and  _232
REMARK   98  A    between atoms: _235  and  _237
REMARK   99  A    between atoms: _237  and  _238
REMARK  100  A    between atoms: _237  and  _240
REMARK  101  A    between atoms: _240  and  _241
REMARK  102  A    between atoms: _244  and  _246
REMARK  103  A    between atoms: _246  and  _247
REMARK  104  A    between atoms: _249  and  _251
REMARK  105  A    between atoms: _251  and  _252
REMARK  106  A    between atoms: _251  and  _254
REMARK  107  A    between atoms: _254  and  _255
REMARK  108  A    between atoms: _255  and  _256
REMARK  109  A    between atoms: _256  and  _257
REMARK  110  A    between atoms: _266  and  _268
REMARK  111  A    between atoms: _268  and  _269
REMARK  112  A    between atoms: _268  and  _271
REMARK  113  A    between atoms: _271  and  _272
REMARK  114  A    between atoms: _277  and  _279
REMARK  115  A    between atoms: _279  and  _280
REMARK  116  A    between atoms: _279  and  _282
REMARK  117  A    between atoms: _282  and  _283
REMARK  118  A    between atoms: _283  and  _284
REMARK  119  A    between atoms: _284  and  _285
REMARK  120  A    between atoms: _294  and  _296
REMARK  121  A    between atoms: _296  and  _297
REMARK  122  A    between atoms: _296  and  _299
REMARK  123  A    between atoms: _299  and  _300
REMARK  124  A    between atoms: _303  and  _305
REMARK  125  A    between atoms: _305  and  _306
REMARK  126  A    between atoms: _305  and  _308
REMARK  127  A    between atoms: _308  and  _309
REMARK  128  A    between atoms: _312  and  _314
REMARK  129  A    between atoms: _314  and  _315
REMARK  130  A    between atoms: _314  and  _317
REMARK  131  A    between atoms: _317  and  _318
REMARK  132  A    between atoms: _321  and  _323
REMARK  133  A    between atoms: _323  and  _324
REMARK  134  A    between atoms: _323  and  _326
REMARK  135  A    between atoms: _326  and  _327
REMARK  136  A    between atoms: _330  and  _332
REMARK  137  A    between atoms: _332  and  _333
REMARK  138  A    between atoms: _332  and  _335
REMARK  139  A    between atoms: _335  and  _336
REMARK  140  A    between atoms: _339  and  _341
REMARK  141  A    between atoms: _341  and  _342
REMARK  142  A    between atoms: _344  and  _346
REMARK  143  A    between atoms: _346  and  _347
REMARK  144  A    between atoms: _350  and  _352
REMARK  145  A    between atoms: _352  and  _353
REMARK  146  A    between atoms: _352  and  _355
REMARK  147  A    between atoms: _355  and  _356
REMARK  148  A    between atoms: _359  and  _361
REMARK  149  A    between atoms: _361  and  _362
REMARK  150  A    between atoms: _361  and  _364
REMARK  151  A    between atoms: _364  and  _365
REMARK  152  A    between atoms: _368  and  _370
REMARK  153  A    between atoms: _370  and  _371
REMARK  154  A    between atoms: _370  and  _373
REMARK  155  A    between atoms: _373  and  _374
REMARK  156  A    between atoms: _377  and  _379
REMARK  157  A    between atoms: _379  and  _380
REMARK  158  A    between atoms: _379  and  _382
REMARK  159  A    between atoms: _385  and  _387
REMARK  160  A    between atoms: _387  and  _388
REMARK  161  A    between atoms: _387  and  _390
REMARK  162  A    between atoms: _390  and  _391
REMARK  163  A    between atoms: _391  and  _392
REMARK  164  A    between atoms: _392  and  _393
REMARK  165  A    between atoms: _393  and  _394
REMARK  166  A    between atoms: _398  and  _400
REMARK  167  A    between atoms: _400  and  _401
REMARK  168  A    between atoms: _400  and  _403
REMARK  169  A    between atoms: _403  and  _404
REMARK  170  A    between atoms: _404  and  _405
REMARK  171  A    between atoms: _407  and  _409
REMARK  172  A    between atoms: _409  and  _410
REMARK  173  A    between atoms: _409  and  _412
REMARK  174  A    between atoms: _412  and  _413
REMARK  175  A    between atoms: _416  and  _418
REMARK  176  A    between atoms: _418  and  _419
REMARK  177  A    between atoms: _421  and  _423
REMARK  178  A    between atoms: _423  and  _424
REMARK  179  A    between atoms: _426  and  _428
REMARK  180  A    between atoms: _428  and  _429
REMARK  181  A    between atoms: _428  and  _431
REMARK  182  A    between atoms: _431  and  _432
REMARK  183  A    between atoms: _435  and  _437
REMARK  184  A    between atoms: _437  and  _438
REMARK  185  A    between atoms: _440  and  _442
REMARK  186  A    between atoms: _442  and  _443
REMARK  187  A    between atoms: _445  and  _447
REMARK  188  A    between atoms: _447  and  _448
REMARK  189  A    between atoms: _447  and  _450
REMARK  190  A    between atoms: _450  and  _451
REMARK  191  A    between atoms: _457  and  _459
REMARK  192  A    between atoms: _459  and  _460
REMARK  193  A    between atoms: _459  and  _462
REMARK  194  A    between atoms: _462  and  _463
REMARK  195  A    between atoms: _466  and  _468
REMARK  196  A    between atoms: _468  and  _469
REMARK  197  A    between atoms: _468  and  _471
REMARK  198  A    between atoms: _474  and  _476
REMARK  199  A    between atoms: _476  and  _477
REMARK  200  A    between atoms: _476  and  _479
REMARK  201  A    between atoms: _479  and  _480
REMARK  202  A    between atoms: _483  and  _485
REMARK  203  A    between atoms: _485  and  _486
REMARK  204  A    between atoms: _485  and  _488
REMARK  205  A    between atoms: _488  and  _489
REMARK  206  A    between atoms: _493  and  _494
REMARK  207  A    between atoms: _499  and  _501
REMARK  208  A    between atoms: _501  and  _502
REMARK  209  A    between atoms: _501  and  _504
REMARK  210  A    between atoms: _507  and  _509
REMARK  211  A    between atoms: _509  and  _510
REMARK  212  A    between atoms: _509  and  _512
REMARK  213  A    between atoms: _512  and  _513
REMARK  214  A    between atoms: _518  and  _520
REMARK  215  A    between atoms: _520  and  _521
REMARK  216  A    between atoms: _520  and  _523
REMARK  217  A    between atoms: _523  and  _524
REMARK  218  A    between atoms: _527  and  _529
REMARK  219  A    between atoms: _529  and  _530
REMARK  220  A    between atoms: _529  and  _532
REMARK  221  A    between atoms: _532  and  _533
REMARK  222  A    between atoms: _536  and  _538
REMARK  223  A    between atoms: _538  and  _539
REMARK  224  A    between atoms: _541  and  _543
REMARK  225  A    between atoms: _543  and  _544
REMARK  226  A    between atoms: _543  and  _546
REMARK  227  A    between atoms: _546  and  _547
REMARK  228  A    between atoms: _547  and  _548
REMARK  229  A    between atoms: _548  and  _549
REMARK                            x       y       z     vdW  Elec       q    Type
REMARK                         _______ _______ _______ _____ _____    ______ ____
ROOT
ATOM      1  O   HOH     1       5.035   7.600  15.672  0.00  0.00    +0.000 OA
ENDROOT
TORSDOF 0
REMARK  Name = ../refined-set-2016/1d4k/1d4k_pocket.pdb
REMARK  229 active torsions:
REMARK  status: ('A' for Active; 'I' for Inactive)
REMARK    1  A    between atoms: _1  and  _3
REMARK    2  A    between atoms: _3  and  _4
REMARK    3  A    between atoms: _3  and  _6
REMARK    4  A    between atoms: _6  and  _7
REMARK    5  A    between atoms: _7  and  _8
REMARK    6  A    between atoms: _8  and  _9
REMARK    7  A    between atoms: _18  and  _20
REMARK    8  A    between atoms: _20  and  _21
REMARK    9  A    between atoms: _20  and  _23
REMARK   10  A    between atoms: _23  and  _24
REMARK   11  A    between atoms: _27  and  _29
REMARK   12  A    between atoms: _29  and  _30
REMARK   13  A    between atoms: _29  and  _32
REMARK   14  A    between atoms: _32  and  _33
REMARK   15  A    between atoms: _36  and  _38
REMARK   16  A    between atoms: _38  and  _39
REMARK   17  A    between atoms: _38  and  _41
REMARK   18  A    between atoms: _41  and  _42
REMARK   19  A    between atoms: _45  and  _47
REMARK   20  A    between atoms: _47  and  _48
REMARK   21  A    between atoms: _47  and  _50
REMARK   22  A    between atoms: _50  and  _51
REMARK   23  A    between atoms: _54  and  _56
REMARK   24  A    between atoms: _56  and  _57
REMARK   25  A    between atoms: _56  and  _59
REMARK   26  A    between atoms: _59  and  _60
REMARK   27  A    between atoms: _63  and  _65
REMARK   28  A    between atoms: _65  and  _66
REMARK   29  A    between atoms: _68  and  _70
REMARK   30  A    between atoms: _70  and  _71
REMARK   31  A    between atoms: _74  and  _76
REMARK   32  A    between atoms: _76  and  _77
REMARK   33  A    between atoms: _76  and  _79
REMARK   34  A    between atoms: _79  and  _80
REMARK   35  A    between atoms: _83  and  _85
REMARK   36  A    between atoms: _85  and  _86
REMARK   37  A    between atoms: _85  and  _88
REMARK   38  A    between atoms: _88  and  _89
REMARK   39  A    between atoms: _92  and  _94
REMARK   40  A    between atoms: _94  and  _95
REMARK   41  A    between atoms: _94  and  _97
REMARK   42  A    between atoms: _97  and  _98
REMARK   43  A    between atoms: _101  and  _103
REMARK   44  A    between atoms: _103  and  _104
REMARK   45  A    between atoms: _103  and  _106
REMARK   46  A    between atoms: _109  and  _111
REMARK   47  A    between atoms: _111  and  _112
REMARK   48  A    between atoms: _111  and  _114
REMARK   49  A    between atoms: _114  and  _115
REMARK   50  A    between atoms: _118  and  _120
REMARK   51  A    between atoms: _120  and  _121
REMARK   52  A    between atoms: _120  and  _123
REMARK   53  A    between atoms: _123  and  _124
REMARK   54  A    between atoms: _124  and  _125
REMARK   55  A    between atoms: _127  and  _129
REMARK   56  A    between atoms: _129  and  _130
REMARK   57  A    between atoms: _129  and  _132
REMARK   58  A    between atoms: _132  and  _133
REMARK   59  A    between atoms: _136  and  _138
REMARK   60  A    between atoms: _138  and  _139
REMARK   61  A    between atoms: _141  and  _143
REMARK   62  A    between atoms: _143  and  _144
REMARK   63  A    between atoms: _146  and  _148
REMARK   64  A    between atoms: _148  and  _149
REMARK   65  A    between atoms: _148  and  _151
REMARK   66  A    between atoms: _151  and  _152
REMARK   67  A    between atoms: _155  and  _157
REMARK   68  A    between atoms: _157  and  _158
REMARK   69  A    between atoms: _160  and  _162
REMARK   70  A    between atoms: _162  and  _163
REMARK   71  A    between atoms: _165  and  _167
REMARK   72  A    between atoms: _167  and  _168
REMARK   73  A    between atoms: _167  and  _170
REMARK   74  A    between atoms: _170  and  _171
REMARK   75  A    between atoms: _174  and  _176
REMARK   76  A    between atoms: _176  and  _177
REMARK   77  A    between atoms: _176  and  _179
REMARK   78  A    between atoms: _182  and  _184
REMARK   79  A    between atoms: _184  and  _185
REMARK   80  A    between atoms: _184  and  _187
REMARK   81  A    between atoms: _187  and  _188
REMARK   82  A    between atoms: _191  and  _193
REMARK   83  A    between atoms: _193  and  _194
REMARK   84  A    between atoms: _193  and  _196
REMARK   85  A    between atoms: _196  and  _197
REMARK   86  A    between atoms: _201  and  _202
REMARK   87  A    between atoms: _207  and  _209
REMARK   88  A    between atoms: _209  and  _210
REMARK   89  A    between atoms: _209  and  _212
REMARK   90  A    between atoms: _215  and  _217
REMARK   91  A    between atoms: _217  and  _218
REMARK   92  A    between atoms: _217  and  _220
REMARK   93  A    between atoms: _220  and  _221
REMARK   94  A    between atoms: _226  and  _228
REMARK   95  A    between atoms: _228  and  _229
REMARK   96  A    between atoms: _228  and  _231
REMARK   97  A    between atoms: _231  and  _232
REMARK   98  A    between atoms: _235  and  _237
REMARK   99  A    between atoms: _237  and  _238
REMARK  100  A    between atoms: _237  and  _240
REMARK  101  A    between atoms: _240  and  _241
REMARK  102  A    between atoms: _244  and  _246
REMARK  103  A    between atoms: _246  and  _247
REMARK  104  A    between atoms: _249  and  _251
REMARK  105  A    between atoms: _251  and  _252
REMARK  106  A    between atoms: _251  and  _254
REMARK  107  A    between atoms: _254  and  _255
REMARK  108  A    between atoms: _255  and  _256
REMARK  109  A    between atoms: _256  and  _257
REMARK  110  A    between atoms: _266  and  _268
REMARK  111  A    between atoms: _268  and  _269
REMARK  112  A    between atoms: _268  and  _271
REMARK  113  A    between atoms: _271  and  _272
REMARK  114  A    between atoms: _277  and  _279
REMARK  115  A    between atoms: _279  and  _280
REMARK  116  A    between atoms: _279  and  _282
REMARK  117  A    between atoms: _282  and  _283
REMARK  118  A    between atoms: _283  and  _284
REMARK  119  A    between atoms: _284  and  _285
REMARK  120  A    between atoms: _294  and  _296
REMARK  121  A    between atoms: _296  and  _297
REMARK  122  A    between atoms: _296  and  _299
REMARK  123  A    between atoms: _299  and  _300
REMARK  124  A    between atoms: _303  and  _305
REMARK  125  A    between atoms: _305  and  _306
REMARK  126  A    between atoms: _305  and  _308
REMARK  127  A    between atoms: _308  and  _309
REMARK  128  A    between atoms: _312  and  _314
REMARK  129  A    between atoms: _314  and  _315
REMARK  130  A    between atoms: _314  and  _317
REMARK  131  A    between atoms: _317  and  _318
REMARK  132  A    between atoms: _321  and  _323
REMARK  133  A    between atoms: _323  and  _324
REMARK  134  A    between atoms: _323  and  _326
REMARK  135  A    between atoms: _326  and  _327
REMARK  136  A    between atoms: _330  and  _332
REMARK  137  A    between atoms: _332  and  _333
REMARK  138  A    between atoms: _332  and  _335
REMARK  139  A    between atoms: _335  and  _336
REMARK  140  A    between atoms: _339  and  _341
REMARK  141  A    between atoms: _341  and  _342
REMARK  142  A    between atoms: _344  and  _346
REMARK  143  A    between atoms: _346  and  _347
REMARK  144  A    between atoms: _350  and  _352
REMARK  145  A    between atoms: _352  and  _353
REMARK  146  A    between atoms: _352  and  _355
REMARK  147  A    between atoms: _355  and  _356
REMARK  148  A    between atoms: _359  and  _361
REMARK  149  A    between atoms: _361  and  _362
REMARK  150  A    between atoms: _361  and  _364
REMARK  151  A    between atoms: _364  and  _365
REMARK  152  A    between atoms: _368  and  _370
REMARK  153  A    between atoms: _370  and  _371
REMARK  154  A    between atoms: _370  and  _373
REMARK  155  A    between atoms: _373  and  _374
REMARK  156  A    between atoms: _377  and  _379
REMARK  157  A    between atoms: _379  and  _380
REMARK  158  A    between atoms: _379  and  _382
REMARK  159  A    between atoms: _385  and  _387
REMARK  160  A    between atoms: _387  and  _388
REMARK  161  A    between atoms: _387  and  _390
REMARK  162  A    between atoms: _390  and  _391
REMARK  163  A    between atoms: _391  and  _392
REMARK  164  A    between atoms: _392  and  _393
REMARK  165  A    between atoms: _393  and  _394
REMARK  166  A    between atoms: _398  and  _400
REMARK  167  A    between atoms: _400  and  _401
REMARK  168  A    between atoms: _400  and  _403
REMARK  169  A    between atoms: _403  and  _404
REMARK  170  A    between atoms: _404  and  _405
REMARK  171  A    between atoms: _407  and  _409
REMARK  172  A    between atoms: _409  and  _410
REMARK  173  A    between atoms: _409  and  _412
REMARK  174  A    between atoms: _412  and  _413
REMARK  175  A    between atoms: _416  and  _418
REMARK  176  A    between atoms: _418  and  _419
REMARK  177  A    between atoms: _421  and  _423
REMARK  178  A    between atoms: _423  and  _424
REMARK  179  A    between atoms: _426  and  _428
REMARK  180  A    between atoms: _428  and  _429
REMARK  181  A    between atoms: _428  and  _431
REMARK  182  A    between atoms: _431  and  _432
REMARK  183  A    between atoms: _435  and  _437
REMARK  184  A    between atoms: _437  and  _438
REMARK  185  A    between atoms: _440  and  _442
REMARK  186  A    between atoms: _442  and  _443
REMARK  187  A    between atoms: _445  and  _447
REMARK  188  A    between atoms: _447  and  _448
REMARK  189  A    between atoms: _447  and  _450
REMARK  190  A    between atoms: _450  and  _451
REMARK  191  A    between atoms: _457  and  _459
REMARK  192  A    between atoms: _459  and  _460
REMARK  193  A    between atoms: _459  and  _462
REMARK  194  A    between atoms: _462  and  _463
REMARK  195  A    between atoms: _466  and  _468
REMARK  196  A    between atoms: _468  and  _469
REMARK  197  A    between atoms: _468  and  _471
REMARK  198  A    between atoms: _474  and  _476
REMARK  199  A    between atoms: _476  and  _477
REMARK  200  A    between atoms: _476  and  _479
REMARK  201  A    between atoms: _479  and  _480
REMARK  202  A    between atoms: _483  and  _485
REMARK  203  A    between atoms: _485  and  _486
REMARK  204  A    between atoms: _485  and  _488
REMARK  205  A    between atoms: _488  and  _489
REMARK  206  A    between atoms: _493  and  _494
REMARK  207  A    between atoms: _499  and  _501
REMARK  208  A    between atoms: _501  and  _502
REMARK  209  A    between atoms: _501  and  _504
REMARK  210  A    between atoms: _507  and  _509
REMARK  211  A    between atoms: _509  and  _510
REMARK  212  A    between atoms: _509  and  _512
REMARK  213  A    between atoms: _512  and  _513
REMARK  214  A    between atoms: _518  and  _520
REMARK  215  A    between atoms: _520  and  _521
REMARK  216  A    between atoms: _520  and  _523
REMARK  217  A    between atoms: _523  and  _524
REMARK  218  A    between atoms: _527  and  _529
REMARK  219  A    between atoms: _529  and  _530
REMARK  220  A    between atoms: _529  and  _532
REMARK  221  A    between atoms: _532  and  _533
REMARK  222  A    between atoms: _536  and  _538
REMARK  223  A    between atoms: _538  and  _539
REMARK  224  A    between atoms: _541  and  _543
REMARK  225  A    between atoms: _543  and  _544
REMARK  226  A    between atoms: _543  and  _546
REMARK  227  A    between atoms: _546  and  _547
REMARK  228  A    between atoms: _547  and  _548
REMARK  229  A    between atoms: _548  and  _549
REMARK                            x       y       z     vdW  Elec       q    Type
REMARK                         _______ _______ _______ _____ _____    ______ ____
ROOT
ATOM      1  O   HOH     1       5.461   6.165  13.218  0.00  0.00    +0.000 OA
ENDROOT
TORSDOF 0
REMARK  Name = ../refined-set-2016/1d4k/1d4k_pocket.pdb
REMARK  229 active torsions:
REMARK  status: ('A' for Active; 'I' for Inactive)
REMARK    1  A    between atoms: _1  and  _3
REMARK    2  A    between atoms: _3  and  _4
REMARK    3  A    between atoms: _3  and  _6
REMARK    4  A    between atoms: _6  and  _7
REMARK    5  A    between atoms: _7  and  _8
REMARK    6  A    between atoms: _8  and  _9
REMARK    7  A    between atoms: _18  and  _20
REMARK    8  A    between atoms: _20  and  _21
REMARK    9  A    between atoms: _20  and  _23
REMARK   10  A    between atoms: _23  and  _24
REMARK   11  A    between atoms: _27  and  _29
REMARK   12  A    between atoms: _29  and  _30
REMARK   13  A    between atoms: _29  and  _32
REMARK   14  A    between atoms: _32  and  _33
REMARK   15  A    between atoms: _36  and  _38
REMARK   16  A    between atoms: _38  and  _39
REMARK   17  A    between atoms: _38  and  _41
REMARK   18  A    between atoms: _41  and  _42
REMARK   19  A    between atoms: _45  and  _47
REMARK   20  A    between atoms: _47  and  _48
REMARK   21  A    between atoms: _47  and  _50
REMARK   22  A    between atoms: _50  and  _51
REMARK   23  A    between atoms: _54  and  _56
REMARK   24  A    between atoms: _56  and  _57
REMARK   25  A    between atoms: _56  and  _59
REMARK   26  A    between atoms: _59  and  _60
REMARK   27  A    between atoms: _63  and  _65
REMARK   28  A    between atoms: _65  and  _66
REMARK   29  A    between atoms: _68  and  _70
REMARK   30  A    between atoms: _70  and  _71
REMARK   31  A    between atoms: _74  and  _76
REMARK   32  A    between atoms: _76  and  _77
REMARK   33  A    between atoms: _76  and  _79
REMARK   34  A    between atoms: _79  and  _80
REMARK   35  A    between atoms: _83  and  _85
REMARK   36  A    between atoms: _85  and  _86
REMARK   37  A    between atoms: _85  and  _88
REMARK   38  A    between atoms: _88  and  _89
REMARK   39  A    between atoms: _92  and  _94
REMARK   40  A    between atoms: _94  and  _95
REMARK   41  A    between atoms: _94  and  _97
REMARK   42  A    between atoms: _97  and  _98
REMARK   43  A    between atoms: _101  and  _103
REMARK   44  A    between atoms: _103  and  _104
REMARK   45  A    between atoms: _103  and  _106
REMARK   46  A    between atoms: _109  and  _111
REMARK   47  A    between atoms: _111  and  _112
REMARK   48  A    between atoms: _111  and  _114
REMARK   49  A    between atoms: _114  and  _115
REMARK   50  A    between atoms: _118  and  _120
REMARK   51  A    between atoms: _120  and  _121
REMARK   52  A    between atoms: _120  and  _123
REMARK   53  A    between atoms: _123  and  _124
REMARK   54  A    between atoms: _124  and  _125
REMARK   55  A    between atoms: _127  and  _129
REMARK   56  A    between atoms: _129  and  _130
REMARK   57  A    between atoms: _129  and  _132
REMARK   58  A    between atoms: _132  and  _133
REMARK   59  A    between atoms: _136  and  _138
REMARK   60  A    between atoms: _138  and  _139
REMARK   61  A    between atoms: _141  and  _143
REMARK   62  A    between atoms: _143  and  _144
REMARK   63  A    between atoms: _146  and  _148
REMARK   64  A    between atoms: _148  and  _149
REMARK   65  A    between atoms: _148  and  _151
REMARK   66  A    between atoms: _151  and  _152
REMARK   67  A    between atoms: _155  and  _157
REMARK   68  A    between atoms: _157  and  _158
REMARK   69  A    between atoms: _160  and  _162
REMARK   70  A    between atoms: _162  and  _163
REMARK   71  A    between atoms: _165  and  _167
REMARK   72  A    between atoms: _167  and  _168
REMARK   73  A    between atoms: _167  and  _170
REMARK   74  A    between atoms: _170  and  _171
REMARK   75  A    between atoms: _174  and  _176
REMARK   76  A    between atoms: _176  and  _177
REMARK   77  A    between atoms: _176  and  _179
REMARK   78  A    between atoms: _182  and  _184
REMARK   79  A    between atoms: _184  and  _185
REMARK   80  A    between atoms: _184  and  _187
REMARK   81  A    between atoms: _187  and  _188
REMARK   82  A    between atoms: _191  and  _193
REMARK   83  A    between atoms: _193  and  _194
REMARK   84  A    between atoms: _193  and  _196
REMARK   85  A    between atoms: _196  and  _197
REMARK   86  A    between atoms: _201  and  _202
REMARK   87  A    between atoms: _207  and  _209
REMARK   88  A    between atoms: _209  and  _210
REMARK   89  A    between atoms: _209  and  _212
REMARK   90  A    between atoms: _215  and  _217
REMARK   91  A    between atoms: _217  and  _218
REMARK   92  A    between atoms: _217  and  _220
REMARK   93  A    between atoms: _220  and  _221
REMARK   94  A    between atoms: _226  and  _228
REMARK   95  A    between atoms: _228  and  _229
REMARK   96  A    between atoms: _228  and  _231
REMARK   97  A    between atoms: _231  and  _232
REMARK   98  A    between atoms: _235  and  _237
REMARK   99  A    between atoms: _237  and  _238
REMARK  100  A    between atoms: _237  and  _240
REMARK  101  A    between atoms: _240  and  _241
REMARK  102  A    between atoms: _244  and  _246
REMARK  103  A    between atoms: _246  and  _247
REMARK  104  A    between atoms: _249  and  _251
REMARK  105  A    between atoms: _251  and  _252
REMARK  106  A    between atoms: _251  and  _254
REMARK  107  A    between atoms: _254  and  _255
REMARK  108  A    between atoms: _255  and  _256
REMARK  109  A    between atoms: _256  and  _257
REMARK  110  A    between atoms: _266  and  _268
REMARK  111  A    between atoms: _268  and  _269
REMARK  112  A    between atoms: _268  and  _271
REMARK  113  A    between atoms: _271  and  _272
REMARK  114  A    between atoms: _277  and  _279
REMARK  115  A    between atoms: _279  and  _280
REMARK  116  A    between atoms: _279  and  _282
REMARK  117  A    between atoms: _282  and  _283
REMARK  118  A    between atoms: _283  and  _284
REMARK  119  A    between atoms: _284  and  _285
REMARK  120  A    between atoms: _294  and  _296
REMARK  121  A    between atoms: _296  and  _297
REMARK  122  A    between atoms: _296  and  _299
REMARK  123  A    between atoms: _299  and  _300
REMARK  124  A    between atoms: _303  and  _305
REMARK  125  A    between atoms: _305  and  _306
REMARK  126  A    between atoms: _305  and  _308
REMARK  127  A    between atoms: _308  and  _309
REMARK  128  A    between atoms: _312  and  _314
REMARK  129  A    between atoms: _314  and  _315
REMARK  130  A    between atoms: _314  and  _317
REMARK  131  A    between atoms: _317  and  _318
REMARK  132  A    between atoms: _321  and  _323
REMARK  133  A    between atoms: _323  and  _324
REMARK  134  A    between atoms: _323  and  _326
REMARK  135  A    between atoms: _326  and  _327
REMARK  136  A    between atoms: _330  and  _332
REMARK  137  A    between atoms: _332  and  _333
REMARK  138  A    between atoms: _332  and  _335
REMARK  139  A    between atoms: _335  and  _336
REMARK  140  A    between atoms: _339  and  _341
REMARK  141  A    between atoms: _341  and  _342
REMARK  142  A    between atoms: _344  and  _346
REMARK  143  A    between atoms: _346  and  _347
REMARK  144  A    between atoms: _350  and  _352
REMARK  145  A    between atoms: _352  and  _353
REMARK  146  A    between atoms: _352  and  _355
REMARK  147  A    between atoms: _355  and  _356
REMARK  148  A    between atoms: _359  and  _361
REMARK  149  A    between atoms: _361  and  _362
REMARK  150  A    between atoms: _361  and  _364
REMARK  151  A    between atoms: _364  and  _365
REMARK  152  A    between atoms: _368  and  _370
REMARK  153  A    between atoms: _370  and  _371
REMARK  154  A    between atoms: _370  and  _373
REMARK  155  A    between atoms: _373  and  _374
REMARK  156  A    between atoms: _377  and  _379
REMARK  157  A    between atoms: _379  and  _380
REMARK  158  A    between atoms: _379  and  _382
REMARK  159  A    between atoms: _385  and  _387
REMARK  160  A    between atoms: _387  and  _388
REMARK  161  A    between atoms: _387  and  _390
REMARK  162  A    between atoms: _390  and  _391
REMARK  163  A    between atoms: _391  and  _392
REMARK  164  A    between atoms: _392  and  _393
REMARK  165  A    between atoms: _393  and  _394
REMARK  166  A    between atoms: _398  and  _400
REMARK  167  A    between atoms: _400  and  _401
REMARK  168  A    between atoms: _400  and  _403
REMARK  169  A    between atoms: _403  and  _404
REMARK  170  A    between atoms: _404  and  _405
REMARK  171  A    between atoms: _407  and  _409
REMARK  172  A    between atoms: _409  and  _410
REMARK  173  A    between atoms: _409  and  _412
REMARK  174  A    between atoms: _412  and  _413
REMARK  175  A    between atoms: _416  and  _418
REMARK  176  A    between atoms: _418  and  _419
REMARK  177  A    between atoms: _421  and  _423
REMARK  178  A    between atoms: _423  and  _424
REMARK  179  A    between atoms: _426  and  _428
REMARK  180  A    between atoms: _428  and  _429
REMARK  181  A    between atoms: _428  and  _431
REMARK  182  A    between atoms: _431  and  _432
REMARK  183  A    between atoms: _435  and  _437
REMARK  184  A    between atoms: _437  and  _438
REMARK  185  A    between atoms: _440  and  _442
REMARK  186  A    between atoms: _442  and  _443
REMARK  187  A    between atoms: _445  and  _447
REMARK  188  A    between atoms: _447  and  _448
REMARK  189  A    between atoms: _447  and  _450
REMARK  190  A    between atoms: _450  and  _451
REMARK  191  A    between atoms: _457  and  _459
REMARK  192  A    between atoms: _459  and  _460
REMARK  193  A    between atoms: _459  and  _462
REMARK  194  A    between atoms: _462  and  _463
REMARK  195  A    between atoms: _466  and  _468
REMARK  196  A    between atoms: _468  and  _469
REMARK  197  A    between atoms: _468  and  _471
REMARK  198  A    between atoms: _474  and  _476
REMARK  199  A    between atoms: _476  and  _477
REMARK  200  A    between atoms: _476  and  _479
REMARK  201  A    between atoms: _479  and  _480
REMARK  202  A    between atoms: _483  and  _485
REMARK  203  A    between atoms: _485  and  _486
REMARK  204  A    between atoms: _485  and  _488
REMARK  205  A    between atoms: _488  and  _489
REMARK  206  A    between atoms: _493  and  _494
REMARK  207  A    between atoms: _499  and  _501
REMARK  208  A    between atoms: _501  and  _502
REMARK  209  A    between atoms: _501  and  _504
REMARK  210  A    between atoms: _507  and  _509
REMARK  211  A    between atoms: _509  and  _510
REMARK  212  A    between atoms: _509  and  _512
REMARK  213  A    between atoms: _512  and  _513
REMARK  214  A    between atoms: _518  and  _520
REMARK  215  A    between atoms: _520  and  _521
REMARK  216  A    between atoms: _520  and  _523
REMARK  217  A    between atoms: _523  and  _524
REMARK  218  A    between atoms: _527  and  _529
REMARK  219  A    between atoms: _529  and  _530
REMARK  220  A    between atoms: _529  and  _532
REMARK  221  A    between atoms: _532  and  _533
REMARK  222  A    between atoms: _536  and  _538
REMARK  223  A    between atoms: _538  and  _539
REMARK  224  A    between atoms: _541  and  _543
REMARK  225  A    between atoms: _543  and  _544
REMARK  226  A    between atoms: _543  and  _546
REMARK  227  A    between atoms: _546  and  _547
REMARK  228  A    between atoms: _547  and  _548
REMARK  229  A    between atoms: _548  and  _549
REMARK                            x       y       z     vdW  Elec       q    Type
REMARK                         _______ _______ _______ _____ _____    ______ ____
ROOT
ATOM      1  O   HOH     1       2.152   3.736   6.201  0.00  0.00    +0.000 OA
ENDROOT
TORSDOF 0
REMARK  Name = ../refined-set-2016/1d4k/1d4k_pocket.pdb
REMARK  229 active torsions:
REMARK  status: ('A' for Active; 'I' for Inactive)
REMARK    1  A    between atoms: _1  and  _3
REMARK    2  A    between atoms: _3  and  _4
REMARK    3  A    between atoms: _3  and  _6
REMARK    4  A    between atoms: _6  and  _7
REMARK    5  A    between atoms: _7  and  _8
REMARK    6  A    between atoms: _8  and  _9
REMARK    7  A    between atoms: _18  and  _20
REMARK    8  A    between atoms: _20  and  _21
REMARK    9  A    between atoms: _20  and  _23
REMARK   10  A    between atoms: _23  and  _24
REMARK   11  A    between atoms: _27  and  _29
REMARK   12  A    between atoms: _29  and  _30
REMARK   13  A    between atoms: _29  and  _32
REMARK   14  A    between atoms: _32  and  _33
REMARK   15  A    between atoms: _36  and  _38
REMARK   16  A    between atoms: _38  and  _39
REMARK   17  A    between atoms: _38  and  _41
REMARK   18  A    between atoms: _41  and  _42
REMARK   19  A    between atoms: _45  and  _47
REMARK   20  A    between atoms: _47  and  _48
REMARK   21  A    between atoms: _47  and  _50
REMARK   22  A    between atoms: _50  and  _51
REMARK   23  A    between atoms: _54  and  _56
REMARK   24  A    between atoms: _56  and  _57
REMARK   25  A    between atoms: _56  and  _59
REMARK   26  A    between atoms: _59  and  _60
REMARK   27  A    between atoms: _63  and  _65
REMARK   28  A    between atoms: _65  and  _66
REMARK   29  A    between atoms: _68  and  _70
REMARK   30  A    between atoms: _70  and  _71
REMARK   31  A    between atoms: _74  and  _76
REMARK   32  A    between atoms: _76  and  _77
REMARK   33  A    between atoms: _76  and  _79
REMARK   34  A    between atoms: _79  and  _80
REMARK   35  A    between atoms: _83  and  _85
REMARK   36  A    between atoms: _85  and  _86
REMARK   37  A    between atoms: _85  and  _88
REMARK   38  A    between atoms: _88  and  _89
REMARK   39  A    between atoms: _92  and  _94
REMARK   40  A    between atoms: _94  and  _95
REMARK   41  A    between atoms: _94  and  _97
REMARK   42  A    between atoms: _97  and  _98
REMARK   43  A    between atoms: _101  and  _103
REMARK   44  A    between atoms: _103  and  _104
REMARK   45  A    between atoms: _103  and  _106
REMARK   46  A    between atoms: _109  and  _111
REMARK   47  A    between atoms: _111  and  _112
REMARK   48  A    between atoms: _111  and  _114
REMARK   49  A    between atoms: _114  and  _115
REMARK   50  A    between atoms: _118  and  _120
REMARK   51  A    between atoms: _120  and  _121
REMARK   52  A    between atoms: _120  and  _123
REMARK   53  A    between atoms: _123  and  _124
REMARK   54  A    between atoms: _124  and  _125
REMARK   55  A    between atoms: _127  and  _129
REMARK   56  A    between atoms: _129  and  _130
REMARK   57  A    between atoms: _129  and  _132
REMARK   58  A    between atoms: _132  and  _133
REMARK   59  A    between atoms: _136  and  _138
REMARK   60  A    between atoms: _138  and  _139
REMARK   61  A    between atoms: _141  and  _143
REMARK   62  A    between atoms: _143  and  _144
REMARK   63  A    between atoms: _146  and  _148
REMARK   64  A    between atoms: _148  and  _149
REMARK   65  A    between atoms: _148  and  _151
REMARK   66  A    between atoms: _151  and  _152
REMARK   67  A    between atoms: _155  and  _157
REMARK   68  A    between atoms: _157  and  _158
REMARK   69  A    between atoms: _160  and  _162
REMARK   70  A    between atoms: _162  and  _163
REMARK   71  A    between atoms: _165  and  _167
REMARK   72  A    between atoms: _167  and  _168
REMARK   73  A    between atoms: _167  and  _170
REMARK   74  A    between atoms: _170  and  _171
REMARK   75  A    between atoms: _174  and  _176
REMARK   76  A    between atoms: _176  and  _177
REMARK   77  A    between atoms: _176  and  _179
REMARK   78  A    between atoms: _182  and  _184
REMARK   79  A    between atoms: _184  and  _185
REMARK   80  A    between atoms: _184  and  _187
REMARK   81  A    between atoms: _187  and  _188
REMARK   82  A    between atoms: _191  and  _193
REMARK   83  A    between atoms: _193  and  _194
REMARK   84  A    between atoms: _193  and  _196
REMARK   85  A    between atoms: _196  and  _197
REMARK   86  A    between atoms: _201  and  _202
REMARK   87  A    between atoms: _207  and  _209
REMARK   88  A    between atoms: _209  and  _210
REMARK   89  A    between atoms: _209  and  _212
REMARK   90  A    between atoms: _215  and  _217
REMARK   91  A    between atoms: _217  and  _218
REMARK   92  A    between atoms: _217  and  _220
REMARK   93  A    between atoms: _220  and  _221
REMARK   94  A    between atoms: _226  and  _228
REMARK   95  A    between atoms: _228  and  _229
REMARK   96  A    between atoms: _228  and  _231
REMARK   97  A    between atoms: _231  and  _232
REMARK   98  A    between atoms: _235  and  _237
REMARK   99  A    between atoms: _237  and  _238
REMARK  100  A    between atoms: _237  and  _240
REMARK  101  A    between atoms: _240  and  _241
REMARK  102  A    between atoms: _244  and  _246
REMARK  103  A    between atoms: _246  and  _247
REMARK  104  A    between atoms: _249  and  _251
REMARK  105  A    between atoms: _251  and  _252
REMARK  106  A    between atoms: _251  and  _254
REMARK  107  A    between atoms: _254  and  _255
REMARK  108  A    between atoms: _255  and  _256
REMARK  109  A    between atoms: _256  and  _257
REMARK  110  A    between atoms: _266  and  _268
REMARK  111  A    between atoms: _268  and  _269
REMARK  112  A    between atoms: _268  and  _271
REMARK  113  A    between atoms: _271  and  _272
REMARK  114  A    between atoms: _277  and  _279
REMARK  115  A    between atoms: _279  and  _280
REMARK  116  A    between atoms: _279  and  _282
REMARK  117  A    between atoms: _282  and  _283
REMARK  118  A    between atoms: _283  and  _284
REMARK  119  A    between atoms: _284  and  _285
REMARK  120  A    between atoms: _294  and  _296
REMARK  121  A    between atoms: _296  and  _297
REMARK  122  A    between atoms: _296  and  _299
REMARK  123  A    between atoms: _299  and  _300
REMARK  124  A    between atoms: _303  and  _305
REMARK  125  A    between atoms: _305  and  _306
REMARK  126  A    between atoms: _305  and  _308
REMARK  127  A    between atoms: _308  and  _309
REMARK  128  A    between atoms: _312  and  _314
REMARK  129  A    between atoms: _314  and  _315
REMARK  130  A    between atoms: _314  and  _317
REMARK  131  A    between atoms: _317  and  _318
REMARK  132  A    between atoms: _321  and  _323
REMARK  133  A    between atoms: _323  and  _324
REMARK  134  A    between atoms: _323  and  _326
REMARK  135  A    between atoms: _326  and  _327
REMARK  136  A    between atoms: _330  and  _332
REMARK  137  A    between atoms: _332  and  _333
REMARK  138  A    between atoms: _332  and  _335
REMARK  139  A    between atoms: _335  and  _336
REMARK  140  A    between atoms: _339  and  _341
REMARK  141  A    between atoms: _341  and  _342
REMARK  142  A    between atoms: _344  and  _346
REMARK  143  A    between atoms: _346  and  _347
REMARK  144  A    between atoms: _350  and  _352
REMARK  145  A    between atoms: _352  and  _353
REMARK  146  A    between atoms: _352  and  _355
REMARK  147  A    between atoms: _355  and  _356
REMARK  148  A    between atoms: _359  and  _361
REMARK  149  A    between atoms: _361  and  _362
REMARK  150  A    between atoms: _361  and  _364
REMARK  151  A    between atoms: _364  and  _365
REMARK  152  A    between atoms: _368  and  _370
REMARK  153  A    between atoms: _370  and  _371
REMARK  154  A    between atoms: _370  and  _373
REMARK  155  A    between atoms: _373  and  _374
REMARK  156  A    between atoms: _377  and  _379
REMARK  157  A    between atoms: _379  and  _380
REMARK  158  A    between atoms: _379  and  _382
REMARK  159  A    between atoms: _385  and  _387
REMARK  160  A    between atoms: _387  and  _388
REMARK  161  A    between atoms: _387  and  _390
REMARK  162  A    between atoms: _390  and  _391
REMARK  163  A    between atoms: _391  and  _392
REMARK  164  A    between atoms: _392  and  _393
REMARK  165  A    between atoms: _393  and  _394
REMARK  166  A    between atoms: _398  and  _400
REMARK  167  A    between atoms: _400  and  _401
REMARK  168  A    between atoms: _400  and  _403
REMARK  169  A    between atoms: _403  and  _404
REMARK  170  A    between atoms: _404  and  _405
REMARK  171  A    between atoms: _407  and  _409
REMARK  172  A    between atoms: _409  and  _410
REMARK  173  A    between atoms: _409  and  _412
REMARK  174  A    between atoms: _412  and  _413
REMARK  175  A    between atoms: _416  and  _418
REMARK  176  A    between atoms: _418  and  _419
REMARK  177  A    between atoms: _421  and  _423
REMARK  178  A    between atoms: _423  and  _424
REMARK  179  A    between atoms: _426  and  _428
REMARK  180  A    between atoms: _428  and  _429
REMARK  181  A    between atoms: _428  and  _431
REMARK  182  A    between atoms: _431  and  _432
REMARK  183  A    between atoms: _435  and  _437
REMARK  184  A    between atoms: _437  and  _438
REMARK  185  A    between atoms: _440  and  _442
REMARK  186  A    between atoms: _442  and  _443
REMARK  187  A    between atoms: _445  and  _447
REMARK  188  A    between atoms: _447  and  _448
REMARK  189  A    between atoms: _447  and  _450
REMARK  190  A    between atoms: _450  and  _451
REMARK  191  A    between atoms: _457  and  _459
REMARK  192  A    between atoms: _459  and  _460
REMARK  193  A    between atoms: _459  and  _462
REMARK  194  A    between atoms: _462  and  _463
REMARK  195  A    between atoms: _466  and  _468
REMARK  196  A    between atoms: _468  and  _469
REMARK  197  A    between atoms: _468  and  _471
REMARK  198  A    between atoms: _474  and  _476
REMARK  199  A    between atoms: _476  and  _477
REMARK  200  A    between atoms: _476  and  _479
REMARK  201  A    between atoms: _479  and  _480
REMARK  202  A    between atoms: _483  and  _485
REMARK  203  A    between atoms: _485  and  _486
REMARK  204  A    between atoms: _485  and  _488
REMARK  205  A    between atoms: _488  and  _489
REMARK  206  A    between atoms: _493  and  _494
REMARK  207  A    between atoms: _499  and  _501
REMARK  208  A    between atoms: _501  and  _502
REMARK  209  A    between atoms: _501  and  _504
REMARK  210  A    between atoms: _507  and  _509
REMARK  211  A    between atoms: _509  and  _510
REMARK  212  A    between atoms: _509  and  _512
REMARK  213  A    between atoms: _512  and  _513
REMARK  214  A    between atoms: _518  and  _520
REMARK  215  A    between atoms: _520  and  _521
REMARK  216  A    between atoms: _520  and  _523
REMARK  217  A    between atoms: _523  and  _524
REMARK  218  A    between atoms: _527  and  _529
REMARK  219  A    between atoms: _529  and  _530
REMARK  220  A    between atoms: _529  and  _532
REMARK  221  A    between atoms: _532  and  _533
REMARK  222  A    between atoms: _536  and  _538
REMARK  223  A    between atoms: _538  and  _539
REMARK  224  A    between atoms: _541  and  _543
REMARK  225  A    between atoms: _543  and  _544
REMARK  226  A    between atoms: _543  and  _546
REMARK  227  A    between atoms: _546  and  _547
REMARK  228  A    between atoms: _547  and  _548
REMARK  229  A    between atoms: _548  and  _549
REMARK                            x       y       z     vdW  Elec       q    Type
REMARK                         _______ _______ _______ _____ _____    ______ ____
ROOT
ATOM      1  O   HOH     1       5.318  -3.112  12.346  0.00  0.00    +0.000 OA
ENDROOT
TORSDOF 0
REMARK  Name = ../refined-set-2016/1d4k/1d4k_pocket.pdb
REMARK  229 active torsions:
REMARK  status: ('A' for Active; 'I' for Inactive)
REMARK    1  A    between atoms: _1  and  _3
REMARK    2  A    between atoms: _3  and  _4
REMARK    3  A    between atoms: _3  and  _6
REMARK    4  A    between atoms: _6  and  _7
REMARK    5  A    between atoms: _7  and  _8
REMARK    6  A    between atoms: _8  and  _9
REMARK    7  A    between atoms: _18  and  _20
REMARK    8  A    between atoms: _20  and  _21
REMARK    9  A    between atoms: _20  and  _23
REMARK   10  A    between atoms: _23  and  _24
REMARK   11  A    between atoms: _27  and  _29
REMARK   12  A    between atoms: _29  and  _30
REMARK   13  A    between atoms: _29  and  _32
REMARK   14  A    between atoms: _32  and  _33
REMARK   15  A    between atoms: _36  and  _38
REMARK   16  A    between atoms: _38  and  _39
REMARK   17  A    between atoms: _38  and  _41
REMARK   18  A    between atoms: _41  and  _42
REMARK   19  A    between atoms: _45  and  _47
REMARK   20  A    between atoms: _47  and  _48
REMARK   21  A    between atoms: _47  and  _50
REMARK   22  A    between atoms: _50  and  _51
REMARK   23  A    between atoms: _54  and  _56
REMARK   24  A    between atoms: _56  and  _57
REMARK   25  A    between atoms: _56  and  _59
REMARK   26  A    between atoms: _59  and  _60
REMARK   27  A    between atoms: _63  and  _65
REMARK   28  A    between atoms: _65  and  _66
REMARK   29  A    between atoms: _68  and  _70
REMARK   30  A    between atoms: _70  and  _71
REMARK   31  A    between atoms: _74  and  _76
REMARK   32  A    between atoms: _76  and  _77
REMARK   33  A    between atoms: _76  and  _79
REMARK   34  A    between atoms: _79  and  _80
REMARK   35  A    between atoms: _83  and  _85
REMARK   36  A    between atoms: _85  and  _86
REMARK   37  A    between atoms: _85  and  _88
REMARK   38  A    between atoms: _88  and  _89
REMARK   39  A    between atoms: _92  and  _94
REMARK   40  A    between atoms: _94  and  _95
REMARK   41  A    between atoms: _94  and  _97
REMARK   42  A    between atoms: _97  and  _98
REMARK   43  A    between atoms: _101  and  _103
REMARK   44  A    between atoms: _103  and  _104
REMARK   45  A    between atoms: _103  and  _106
REMARK   46  A    between atoms: _109  and  _111
REMARK   47  A    between atoms: _111  and  _112
REMARK   48  A    between atoms: _111  and  _114
REMARK   49  A    between atoms: _114  and  _115
REMARK   50  A    between atoms: _118  and  _120
REMARK   51  A    between atoms: _120  and  _121
REMARK   52  A    between atoms: _120  and  _123
REMARK   53  A    between atoms: _123  and  _124
REMARK   54  A    between atoms: _124  and  _125
REMARK   55  A    between atoms: _127  and  _129
REMARK   56  A    between atoms: _129  and  _130
REMARK   57  A    between atoms: _129  and  _132
REMARK   58  A    between atoms: _132  and  _133
REMARK   59  A    between atoms: _136  and  _138
REMARK   60  A    between atoms: _138  and  _139
REMARK   61  A    between atoms: _141  and  _143
REMARK   62  A    between atoms: _143  and  _144
REMARK   63  A    between atoms: _146  and  _148
REMARK   64  A    between atoms: _148  and  _149
REMARK   65  A    between atoms: _148  and  _151
REMARK   66  A    between atoms: _151  and  _152
REMARK   67  A    between atoms: _155  and  _157
REMARK   68  A    between atoms: _157  and  _158
REMARK   69  A    between atoms: _160  and  _162
REMARK   70  A    between atoms: _162  and  _163
REMARK   71  A    between atoms: _165  and  _167
REMARK   72  A    between atoms: _167  and  _168
REMARK   73  A    between atoms: _167  and  _170
REMARK   74  A    between atoms: _170  and  _171
REMARK   75  A    between atoms: _174  and  _176
REMARK   76  A    between atoms: _176  and  _177
REMARK   77  A    between atoms: _176  and  _179
REMARK   78  A    between atoms: _182  and  _184
REMARK   79  A    between atoms: _184  and  _185
REMARK   80  A    between atoms: _184  and  _187
REMARK   81  A    between atoms: _187  and  _188
REMARK   82  A    between atoms: _191  and  _193
REMARK   83  A    between atoms: _193  and  _194
REMARK   84  A    between atoms: _193  and  _196
REMARK   85  A    between atoms: _196  and  _197
REMARK   86  A    between atoms: _201  and  _202
REMARK   87  A    between atoms: _207  and  _209
REMARK   88  A    between atoms: _209  and  _210
REMARK   89  A    between atoms: _209  and  _212
REMARK   90  A    between atoms: _215  and  _217
REMARK   91  A    between atoms: _217  and  _218
REMARK   92  A    between atoms: _217  and  _220
REMARK   93  A    between atoms: _220  and  _221
REMARK   94  A    between atoms: _226  and  _228
REMARK   95  A    between atoms: _228  and  _229
REMARK   96  A    between atoms: _228  and  _231
REMARK   97  A    between atoms: _231  and  _232
REMARK   98  A    between atoms: _235  and  _237
REMARK   99  A    between atoms: _237  and  _238
REMARK  100  A    between atoms: _237  and  _240
REMARK  101  A    between atoms: _240  and  _241
REMARK  102  A    between atoms: _244  and  _246
REMARK  103  A    between atoms: _246  and  _247
REMARK  104  A    between atoms: _249  and  _251
REMARK  105  A    between atoms: _251  and  _252
REMARK  106  A    between atoms: _251  and  _254
REMARK  107  A    between atoms: _254  and  _255
REMARK  108  A    between atoms: _255  and  _256
REMARK  109  A    between atoms: _256  and  _257
REMARK  110  A    between atoms: _266  and  _268
REMARK  111  A    between atoms: _268  and  _269
REMARK  112  A    between atoms: _268  and  _271
REMARK  113  A    between atoms: _271  and  _272
REMARK  114  A    between atoms: _277  and  _279
REMARK  115  A    between atoms: _279  and  _280
REMARK  116  A    between atoms: _279  and  _282
REMARK  117  A    between atoms: _282  and  _283
REMARK  118  A    between atoms: _283  and  _284
REMARK  119  A    between atoms: _284  and  _285
REMARK  120  A    between atoms: _294  and  _296
REMARK  121  A    between atoms: _296  and  _297
REMARK  122  A    between atoms: _296  and  _299
REMARK  123  A    between atoms: _299  and  _300
REMARK  124  A    between atoms: _303  and  _305
REMARK  125  A    between atoms: _305  and  _306
REMARK  126  A    between atoms: _305  and  _308
REMARK  127  A    between atoms: _308  and  _309
REMARK  128  A    between atoms: _312  and  _314
REMARK  129  A    between atoms: _314  and  _315
REMARK  130  A    between atoms: _314  and  _317
REMARK  131  A    between atoms: _317  and  _318
REMARK  132  A    between atoms: _321  and  _323
REMARK  133  A    between atoms: _323  and  _324
REMARK  134  A    between atoms: _323  and  _326
REMARK  135  A    between atoms: _326  and  _327
REMARK  136  A    between atoms: _330  and  _332
REMARK  137  A    between atoms: _332  and  _333
REMARK  138  A    between atoms: _332  and  _335
REMARK  139  A    between atoms: _335  and  _336
REMARK  140  A    between atoms: _339  and  _341
REMARK  141  A    between atoms: _341  and  _342
REMARK  142  A    between atoms: _344  and  _346
REMARK  143  A    between atoms: _346  and  _347
REMARK  144  A    between atoms: _350  and  _352
REMARK  145  A    between atoms: _352  and  _353
REMARK  146  A    between atoms: _352  and  _355
REMARK  147  A    between atoms: _355  and  _356
REMARK  148  A    between atoms: _359  and  _361
REMARK  149  A    between atoms: _361  and  _362
REMARK  150  A    between atoms: _361  and  _364
REMARK  151  A    between atoms: _364  and  _365
REMARK  152  A    between atoms: _368  and  _370
REMARK  153  A    between atoms: _370  and  _371
REMARK  154  A    between atoms: _370  and  _373
REMARK  155  A    between atoms: _373  and  _374
REMARK  156  A    between atoms: _377  and  _379
REMARK  157  A    between atoms: _379  and  _380
REMARK  158  A    between atoms: _379  and  _382
REMARK  159  A    between atoms: _385  and  _387
REMARK  160  A    between atoms: _387  and  _388
REMARK  161  A    between atoms: _387  and  _390
REMARK  162  A    between atoms: _390  and  _391
REMARK  163  A    between atoms: _391  and  _392
REMARK  164  A    between atoms: _392  and  _393
REMARK  165  A    between atoms: _393  and  _394
REMARK  166  A    between atoms: _398  and  _400
REMARK  167  A    between atoms: _400  and  _401
REMARK  168  A    between atoms: _400  and  _403
REMARK  169  A    between atoms: _403  and  _404
REMARK  170  A    between atoms: _404  and  _405
REMARK  171  A    between atoms: _407  and  _409
REMARK  172  A    between atoms: _409  and  _410
REMARK  173  A    between atoms: _409  and  _412
REMARK  174  A    between atoms: _412  and  _413
REMARK  175  A    between atoms: _416  and  _418
REMARK  176  A    between atoms: _418  and  _419
REMARK  177  A    between atoms: _421  and  _423
REMARK  178  A    between atoms: _423  and  _424
REMARK  179  A    between atoms: _426  and  _428
REMARK  180  A    between atoms: _428  and  _429
REMARK  181  A    between atoms: _428  and  _431
REMARK  182  A    between atoms: _431  and  _432
REMARK  183  A    between atoms: _435  and  _437
REMARK  184  A    between atoms: _437  and  _438
REMARK  185  A    between atoms: _440  and  _442
REMARK  186  A    between atoms: _442  and  _443
REMARK  187  A    between atoms: _445  and  _447
REMARK  188  A    between atoms: _447  and  _448
REMARK  189  A    between atoms: _447  and  _450
REMARK  190  A    between atoms: _450  and  _451
REMARK  191  A    between atoms: _457  and  _459
REMARK  192  A    between atoms: _459  and  _460
REMARK  193  A    between atoms: _459  and  _462
REMARK  194  A    between atoms: _462  and  _463
REMARK  195  A    between atoms: _466  and  _468
REMARK  196  A    between atoms: _468  and  _469
REMARK  197  A    between atoms: _468  and  _471
REMARK  198  A    between atoms: _474  and  _476
REMARK  199  A    between atoms: _476  and  _477
REMARK  200  A    between atoms: _476  and  _479
REMARK  201  A    between atoms: _479  and  _480
REMARK  202  A    between atoms: _483  and  _485
REMARK  203  A    between atoms: _485  and  _486
REMARK  204  A    between atoms: _485  and  _488
REMARK  205  A    between atoms: _488  and  _489
REMARK  206  A    between atoms: _493  and  _494
REMARK  207  A    between atoms: _499  and  _501
REMARK  208  A    between atoms: _501  and  _502
REMARK  209  A    between atoms: _501  and  _504
REMARK  210  A    between atoms: _507  and  _509
REMARK  211  A    between atoms: _509  and  _510
REMARK  212  A    between atoms: _509  and  _512
REMARK  213  A    between atoms: _512  and  _513
REMARK  214  A    between atoms: _518  and  _520
REMARK  215  A    between atoms: _520  and  _521
REMARK  216  A    between atoms: _520  and  _523
REMARK  217  A    between atoms: _523  and  _524
REMARK  218  A    between atoms: _527  and  _529
REMARK  219  A    between atoms: _529  and  _530
REMARK  220  A    between atoms: _529  and  _532
REMARK  221  A    between atoms: _532  and  _533
REMARK  222  A    between atoms: _536  and  _538
REMARK  223  A    between atoms: _538  and  _539
REMARK  224  A    between atoms: _541  and  _543
REMARK  225  A    between atoms: _543  and  _544
REMARK  226  A    between atoms: _543  and  _546
REMARK  227  A    between atoms: _546  and  _547
REMARK  228  A    between atoms: _547  and  _548
REMARK  229  A    between atoms: _548  and  _549
REMARK                            x       y       z     vdW  Elec       q    Type
REMARK                         _______ _______ _______ _____ _____    ______ ____
ROOT
ATOM      1  O   HOH     1       5.251  -3.577  23.393  0.00  0.00    +0.000 OA
ENDROOT
TORSDOF 0
REMARK  Name = ../refined-set-2016/1d4k/1d4k_pocket.pdb
REMARK  229 active torsions:
REMARK  status: ('A' for Active; 'I' for Inactive)
REMARK    1  A    between atoms: _1  and  _3
REMARK    2  A    between atoms: _3  and  _4
REMARK    3  A    between atoms: _3  and  _6
REMARK    4  A    between atoms: _6  and  _7
REMARK    5  A    between atoms: _7  and  _8
REMARK    6  A    between atoms: _8  and  _9
REMARK    7  A    between atoms: _18  and  _20
REMARK    8  A    between atoms: _20  and  _21
REMARK    9  A    between atoms: _20  and  _23
REMARK   10  A    between atoms: _23  and  _24
REMARK   11  A    between atoms: _27  and  _29
REMARK   12  A    between atoms: _29  and  _30
REMARK   13  A    between atoms: _29  and  _32
REMARK   14  A    between atoms: _32  and  _33
REMARK   15  A    between atoms: _36  and  _38
REMARK   16  A    between atoms: _38  and  _39
REMARK   17  A    between atoms: _38  and  _41
REMARK   18  A    between atoms: _41  and  _42
REMARK   19  A    between atoms: _45  and  _47
REMARK   20  A    between atoms: _47  and  _48
REMARK   21  A    between atoms: _47  and  _50
REMARK   22  A    between atoms: _50  and  _51
REMARK   23  A    between atoms: _54  and  _56
REMARK   24  A    between atoms: _56  and  _57
REMARK   25  A    between atoms: _56  and  _59
REMARK   26  A    between atoms: _59  and  _60
REMARK   27  A    between atoms: _63  and  _65
REMARK   28  A    between atoms: _65  and  _66
REMARK   29  A    between atoms: _68  and  _70
REMARK   30  A    between atoms: _70  and  _71
REMARK   31  A    between atoms: _74  and  _76
REMARK   32  A    between atoms: _76  and  _77
REMARK   33  A    between atoms: _76  and  _79
REMARK   34  A    between atoms: _79  and  _80
REMARK   35  A    between atoms: _83  and  _85
REMARK   36  A    between atoms: _85  and  _86
REMARK   37  A    between atoms: _85  and  _88
REMARK   38  A    between atoms: _88  and  _89
REMARK   39  A    between atoms: _92  and  _94
REMARK   40  A    between atoms: _94  and  _95
REMARK   41  A    between atoms: _94  and  _97
REMARK   42  A    between atoms: _97  and  _98
REMARK   43  A    between atoms: _101  and  _103
REMARK   44  A    between atoms: _103  and  _104
REMARK   45  A    between atoms: _103  and  _106
REMARK   46  A    between atoms: _109  and  _111
REMARK   47  A    between atoms: _111  and  _112
REMARK   48  A    between atoms: _111  and  _114
REMARK   49  A    between atoms: _114  and  _115
REMARK   50  A    between atoms: _118  and  _120
REMARK   51  A    between atoms: _120  and  _121
REMARK   52  A    between atoms: _120  and  _123
REMARK   53  A    between atoms: _123  and  _124
REMARK   54  A    between atoms: _124  and  _125
REMARK   55  A    between atoms: _127  and  _129
REMARK   56  A    between atoms: _129  and  _130
REMARK   57  A    between atoms: _129  and  _132
REMARK   58  A    between atoms: _132  and  _133
REMARK   59  A    between atoms: _136  and  _138
REMARK   60  A    between atoms: _138  and  _139
REMARK   61  A    between atoms: _141  and  _143
REMARK   62  A    between atoms: _143  and  _144
REMARK   63  A    between atoms: _146  and  _148
REMARK   64  A    between atoms: _148  and  _149
REMARK   65  A    between atoms: _148  and  _151
REMARK   66  A    between atoms: _151  and  _152
REMARK   67  A    between atoms: _155  and  _157
REMARK   68  A    between atoms: _157  and  _158
REMARK   69  A    between atoms: _160  and  _162
REMARK   70  A    between atoms: _162  and  _163
REMARK   71  A    between atoms: _165  and  _167
REMARK   72  A    between atoms: _167  and  _168
REMARK   73  A    between atoms: _167  and  _170
REMARK   74  A    between atoms: _170  and  _171
REMARK   75  A    between atoms: _174  and  _176
REMARK   76  A    between atoms: _176  and  _177
REMARK   77  A    between atoms: _176  and  _179
REMARK   78  A    between atoms: _182  and  _184
REMARK   79  A    between atoms: _184  and  _185
REMARK   80  A    between atoms: _184  and  _187
REMARK   81  A    between atoms: _187  and  _188
REMARK   82  A    between atoms: _191  and  _193
REMARK   83  A    between atoms: _193  and  _194
REMARK   84  A    between atoms: _193  and  _196
REMARK   85  A    between atoms: _196  and  _197
REMARK   86  A    between atoms: _201  and  _202
REMARK   87  A    between atoms: _207  and  _209
REMARK   88  A    between atoms: _209  and  _210
REMARK   89  A    between atoms: _209  and  _212
REMARK   90  A    between atoms: _215  and  _217
REMARK   91  A    between atoms: _217  and  _218
REMARK   92  A    between atoms: _217  and  _220
REMARK   93  A    between atoms: _220  and  _221
REMARK   94  A    between atoms: _226  and  _228
REMARK   95  A    between atoms: _228  and  _229
REMARK   96  A    between atoms: _228  and  _231
REMARK   97  A    between atoms: _231  and  _232
REMARK   98  A    between atoms: _235  and  _237
REMARK   99  A    between atoms: _237  and  _238
REMARK  100  A    between atoms: _237  and  _240
REMARK  101  A    between atoms: _240  and  _241
REMARK  102  A    between atoms: _244  and  _246
REMARK  103  A    between atoms: _246  and  _247
REMARK  104  A    between atoms: _249  and  _251
REMARK  105  A    between atoms: _251  and  _252
REMARK  106  A    between atoms: _251  and  _254
REMARK  107  A    between atoms: _254  and  _255
REMARK  108  A    between atoms: _255  and  _256
REMARK  109  A    between atoms: _256  and  _257
REMARK  110  A    between atoms: _266  and  _268
REMARK  111  A    between atoms: _268  and  _269
REMARK  112  A    between atoms: _268  and  _271
REMARK  113  A    between atoms: _271  and  _272
REMARK  114  A    between atoms: _277  and  _279
REMARK  115  A    between atoms: _279  and  _280
REMARK  116  A    between atoms: _279  and  _282
REMARK  117  A    between atoms: _282  and  _283
REMARK  118  A    between atoms: _283  and  _284
REMARK  119  A    between atoms: _284  and  _285
REMARK  120  A    between atoms: _294  and  _296
REMARK  121  A    between atoms: _296  and  _297
REMARK  122  A    between atoms: _296  and  _299
REMARK  123  A    between atoms: _299  and  _300
REMARK  124  A    between atoms: _303  and  _305
REMARK  125  A    between atoms: _305  and  _306
REMARK  126  A    between atoms: _305  and  _308
REMARK  127  A    between atoms: _308  and  _309
REMARK  128  A    between atoms: _312  and  _314
REMARK  129  A    between atoms: _314  and  _315
REMARK  130  A    between atoms: _314  and  _317
REMARK  131  A    between atoms: _317  and  _318
REMARK  132  A    between atoms: _321  and  _323
REMARK  133  A    between atoms: _323  and  _324
REMARK  134  A    between atoms: _323  and  _326
REMARK  135  A    between atoms: _326  and  _327
REMARK  136  A    between atoms: _330  and  _332
REMARK  137  A    between atoms: _332  and  _333
REMARK  138  A    between atoms: _332  and  _335
REMARK  139  A    between atoms: _335  and  _336
REMARK  140  A    between atoms: _339  and  _341
REMARK  141  A    between atoms: _341  and  _342
REMARK  142  A    between atoms: _344  and  _346
REMARK  143  A    between atoms: _346  and  _347
REMARK  144  A    between atoms: _350  and  _352
REMARK  145  A    between atoms: _352  and  _353
REMARK  146  A    between atoms: _352  and  _355
REMARK  147  A    between atoms: _355  and  _356
REMARK  148  A    between atoms: _359  and  _361
REMARK  149  A    between atoms: _361  and  _362
REMARK  150  A    between atoms: _361  and  _364
REMARK  151  A    between atoms: _364  and  _365
REMARK  152  A    between atoms: _368  and  _370
REMARK  153  A    between atoms: _370  and  _371
REMARK  154  A    between atoms: _370  and  _373
REMARK  155  A    between atoms: _373  and  _374
REMARK  156  A    between atoms: _377  and  _379
REMARK  157  A    between atoms: _379  and  _380
REMARK  158  A    between atoms: _379  and  _382
REMARK  159  A    between atoms: _385  and  _387
REMARK  160  A    between atoms: _387  and  _388
REMARK  161  A    between atoms: _387  and  _390
REMARK  162  A    between atoms: _390  and  _391
REMARK  163  A    between atoms: _391  and  _392
REMARK  164  A    between atoms: _392  and  _393
REMARK  165  A    between atoms: _393  and  _394
REMARK  166  A    between atoms: _398  and  _400
REMARK  167  A    between atoms: _400  and  _401
REMARK  168  A    between atoms: _400  and  _403
REMARK  169  A    between atoms: _403  and  _404
REMARK  170  A    between atoms: _404  and  _405
REMARK  171  A    between atoms: _407  and  _409
REMARK  172  A    between atoms: _409  and  _410
REMARK  173  A    between atoms: _409  and  _412
REMARK  174  A    between atoms: _412  and  _413
REMARK  175  A    between atoms: _416  and  _418
REMARK  176  A    between atoms: _418  and  _419
REMARK  177  A    between atoms: _421  and  _423
REMARK  178  A    between atoms: _423  and  _424
REMARK  179  A    between atoms: _426  and  _428
REMARK  180  A    between atoms: _428  and  _429
REMARK  181  A    between atoms: _428  and  _431
REMARK  182  A    between atoms: _431  and  _432
REMARK  183  A    between atoms: _435  and  _437
REMARK  184  A    between atoms: _437  and  _438
REMARK  185  A    between atoms: _440  and  _442
REMARK  186  A    between atoms: _442  and  _443
REMARK  187  A    between atoms: _445  and  _447
REMARK  188  A    between atoms: _447  and  _448
REMARK  189  A    between atoms: _447  and  _450
REMARK  190  A    between atoms: _450  and  _451
REMARK  191  A    between atoms: _457  and  _459
REMARK  192  A    between atoms: _459  and  _460
REMARK  193  A    between atoms: _459  and  _462
REMARK  194  A    between atoms: _462  and  _463
REMARK  195  A    between atoms: _466  and  _468
REMARK  196  A    between atoms: _468  and  _469
REMARK  197  A    between atoms: _468  and  _471
REMARK  198  A    between atoms: _474  and  _476
REMARK  199  A    between atoms: _476  and  _477
REMARK  200  A    between atoms: _476  and  _479
REMARK  201  A    between atoms: _479  and  _480
REMARK  202  A    between atoms: _483  and  _485
REMARK  203  A    between atoms: _485  and  _486
REMARK  204  A    between atoms: _485  and  _488
REMARK  205  A    between atoms: _488  and  _489
REMARK  206  A    between atoms: _493  and  _494
REMARK  207  A    between atoms: _499  and  _501
REMARK  208  A    between atoms: _501  and  _502
REMARK  209  A    between atoms: _501  and  _504
REMARK  210  A    between atoms: _507  and  _509
REMARK  211  A    between atoms: _509  and  _510
REMARK  212  A    between atoms: _509  and  _512
REMARK  213  A    between atoms: _512  and  _513
REMARK  214  A    between atoms: _518  and  _520
REMARK  215  A    between atoms: _520  and  _521
REMARK  216  A    between atoms: _520  and  _523
REMARK  217  A    between atoms: _523  and  _524
REMARK  218  A    between atoms: _527  and  _529
REMARK  219  A    between atoms: _529  and  _530
REMARK  220  A    between atoms: _529  and  _532
REMARK  221  A    between atoms: _532  and  _533
REMARK  222  A    between atoms: _536  and  _538
REMARK  223  A    between atoms: _538  and  _539
REMARK  224  A    between atoms: _541  and  _543
REMARK  225  A    between atoms: _543  and  _544
REMARK  226  A    between atoms: _543  and  _546
REMARK  227  A    between atoms: _546  and  _547
REMARK  228  A    between atoms: _547  and  _548
REMARK  229  A    between atoms: _548  and  _549
REMARK                            x       y       z     vdW  Elec       q    Type
REMARK                         _______ _______ _______ _____ _____    ______ ____
ROOT
ATOM      1  O   HOH     1       4.672  -5.283  21.252  0.00  0.00    +0.000 OA
ENDROOT
TORSDOF 0
REMARK  Name = ../refined-set-2016/1d4k/1d4k_pocket.pdb
REMARK  229 active torsions:
REMARK  status: ('A' for Active; 'I' for Inactive)
REMARK    1  A    between atoms: _1  and  _3
REMARK    2  A    between atoms: _3  and  _4
REMARK    3  A    between atoms: _3  and  _6
REMARK    4  A    between atoms: _6  and  _7
REMARK    5  A    between atoms: _7  and  _8
REMARK    6  A    between atoms: _8  and  _9
REMARK    7  A    between atoms: _18  and  _20
REMARK    8  A    between atoms: _20  and  _21
REMARK    9  A    between atoms: _20  and  _23
REMARK   10  A    between atoms: _23  and  _24
REMARK   11  A    between atoms: _27  and  _29
REMARK   12  A    between atoms: _29  and  _30
REMARK   13  A    between atoms: _29  and  _32
REMARK   14  A    between atoms: _32  and  _33
REMARK   15  A    between atoms: _36  and  _38
REMARK   16  A    between atoms: _38  and  _39
REMARK   17  A    between atoms: _38  and  _41
REMARK   18  A    between atoms: _41  and  _42
REMARK   19  A    between atoms: _45  and  _47
REMARK   20  A    between atoms: _47  and  _48
REMARK   21  A    between atoms: _47  and  _50
REMARK   22  A    between atoms: _50  and  _51
REMARK   23  A    between atoms: _54  and  _56
REMARK   24  A    between atoms: _56  and  _57
REMARK   25  A    between atoms: _56  and  _59
REMARK   26  A    between atoms: _59  and  _60
REMARK   27  A    between atoms: _63  and  _65
REMARK   28  A    between atoms: _65  and  _66
REMARK   29  A    between atoms: _68  and  _70
REMARK   30  A    between atoms: _70  and  _71
REMARK   31  A    between atoms: _74  and  _76
REMARK   32  A    between atoms: _76  and  _77
REMARK   33  A    between atoms: _76  and  _79
REMARK   34  A    between atoms: _79  and  _80
REMARK   35  A    between atoms: _83  and  _85
REMARK   36  A    between atoms: _85  and  _86
REMARK   37  A    between atoms: _85  and  _88
REMARK   38  A    between atoms: _88  and  _89
REMARK   39  A    between atoms: _92  and  _94
REMARK   40  A    between atoms: _94  and  _95
REMARK   41  A    between atoms: _94  and  _97
REMARK   42  A    between atoms: _97  and  _98
REMARK   43  A    between atoms: _101  and  _103
REMARK   44  A    between atoms: _103  and  _104
REMARK   45  A    between atoms: _103  and  _106
REMARK   46  A    between atoms: _109  and  _111
REMARK   47  A    between atoms: _111  and  _112
REMARK   48  A    between atoms: _111  and  _114
REMARK   49  A    between atoms: _114  and  _115
REMARK   50  A    between atoms: _118  and  _120
REMARK   51  A    between atoms: _120  and  _121
REMARK   52  A    between atoms: _120  and  _123
REMARK   53  A    between atoms: _123  and  _124
REMARK   54  A    between atoms: _124  and  _125
REMARK   55  A    between atoms: _127  and  _129
REMARK   56  A    between atoms: _129  and  _130
REMARK   57  A    between atoms: _129  and  _132
REMARK   58  A    between atoms: _132  and  _133
REMARK   59  A    between atoms: _136  and  _138
REMARK   60  A    between atoms: _138  and  _139
REMARK   61  A    between atoms: _141  and  _143
REMARK   62  A    between atoms: _143  and  _144
REMARK   63  A    between atoms: _146  and  _148
REMARK   64  A    between atoms: _148  and  _149
REMARK   65  A    between atoms: _148  and  _151
REMARK   66  A    between atoms: _151  and  _152
REMARK   67  A    between atoms: _155  and  _157
REMARK   68  A    between atoms: _157  and  _158
REMARK   69  A    between atoms: _160  and  _162
REMARK   70  A    between atoms: _162  and  _163
REMARK   71  A    between atoms: _165  and  _167
REMARK   72  A    between atoms: _167  and  _168
REMARK   73  A    between atoms: _167  and  _170
REMARK   74  A    between atoms: _170  and  _171
REMARK   75  A    between atoms: _174  and  _176
REMARK   76  A    between atoms: _176  and  _177
REMARK   77  A    between atoms: _176  and  _179
REMARK   78  A    between atoms: _182  and  _184
REMARK   79  A    between atoms: _184  and  _185
REMARK   80  A    between atoms: _184  and  _187
REMARK   81  A    between atoms: _187  and  _188
REMARK   82  A    between atoms: _191  and  _193
REMARK   83  A    between atoms: _193  and  _194
REMARK   84  A    between atoms: _193  and  _196
REMARK   85  A    between atoms: _196  and  _197
REMARK   86  A    between atoms: _201  and  _202
REMARK   87  A    between atoms: _207  and  _209
REMARK   88  A    between atoms: _209  and  _210
REMARK   89  A    between atoms: _209  and  _212
REMARK   90  A    between atoms: _215  and  _217
REMARK   91  A    between atoms: _217  and  _218
REMARK   92  A    between atoms: _217  and  _220
REMARK   93  A    between atoms: _220  and  _221
REMARK   94  A    between atoms: _226  and  _228
REMARK   95  A    between atoms: _228  and  _229
REMARK   96  A    between atoms: _228  and  _231
REMARK   97  A    between atoms: _231  and  _232
REMARK   98  A    between atoms: _235  and  _237
REMARK   99  A    between atoms: _237  and  _238
REMARK  100  A    between atoms: _237  and  _240
REMARK  101  A    between atoms: _240  and  _241
REMARK  102  A    between atoms: _244  and  _246
REMARK  103  A    between atoms: _246  and  _247
REMARK  104  A    between atoms: _249  and  _251
REMARK  105  A    between atoms: _251  and  _252
REMARK  106  A    between atoms: _251  and  _254
REMARK  107  A    between atoms: _254  and  _255
REMARK  108  A    between atoms: _255  and  _256
REMARK  109  A    between atoms: _256  and  _257
REMARK  110  A    between atoms: _266  and  _268
REMARK  111  A    between atoms: _268  and  _269
REMARK  112  A    between atoms: _268  and  _271
REMARK  113  A    between atoms: _271  and  _272
REMARK  114  A    between atoms: _277  and  _279
REMARK  115  A    between atoms: _279  and  _280
REMARK  116  A    between atoms: _279  and  _282
REMARK  117  A    between atoms: _282  and  _283
REMARK  118  A    between atoms: _283  and  _284
REMARK  119  A    between atoms: _284  and  _285
REMARK  120  A    between atoms: _294  and  _296
REMARK  121  A    between atoms: _296  and  _297
REMARK  122  A    between atoms: _296  and  _299
REMARK  123  A    between atoms: _299  and  _300
REMARK  124  A    between atoms: _303  and  _305
REMARK  125  A    between atoms: _305  and  _306
REMARK  126  A    between atoms: _305  and  _308
REMARK  127  A    between atoms: _308  and  _309
REMARK  128  A    between atoms: _312  and  _314
REMARK  129  A    between atoms: _314  and  _315
REMARK  130  A    between atoms: _314  and  _317
REMARK  131  A    between atoms: _317  and  _318
REMARK  132  A    between atoms: _321  and  _323
REMARK  133  A    between atoms: _323  and  _324
REMARK  134  A    between atoms: _323  and  _326
REMARK  135  A    between atoms: _326  and  _327
REMARK  136  A    between atoms: _330  and  _332
REMARK  137  A    between atoms: _332  and  _333
REMARK  138  A    between atoms: _332  and  _335
REMARK  139  A    between atoms: _335  and  _336
REMARK  140  A    between atoms: _339  and  _341
REMARK  141  A    between atoms: _341  and  _342
REMARK  142  A    between atoms: _344  and  _346
REMARK  143  A    between atoms: _346  and  _347
REMARK  144  A    between atoms: _350  and  _352
REMARK  145  A    between atoms: _352  and  _353
REMARK  146  A    between atoms: _352  and  _355
REMARK  147  A    between atoms: _355  and  _356
REMARK  148  A    between atoms: _359  and  _361
REMARK  149  A    between atoms: _361  and  _362
REMARK  150  A    between atoms: _361  and  _364
REMARK  151  A    between atoms: _364  and  _365
REMARK  152  A    between atoms: _368  and  _370
REMARK  153  A    between atoms: _370  and  _371
REMARK  154  A    between atoms: _370  and  _373
REMARK  155  A    between atoms: _373  and  _374
REMARK  156  A    between atoms: _377  and  _379
REMARK  157  A    between atoms: _379  and  _380
REMARK  158  A    between atoms: _379  and  _382
REMARK  159  A    between atoms: _385  and  _387
REMARK  160  A    between atoms: _387  and  _388
REMARK  161  A    between atoms: _387  and  _390
REMARK  162  A    between atoms: _390  and  _391
REMARK  163  A    between atoms: _391  and  _392
REMARK  164  A    between atoms: _392  and  _393
REMARK  165  A    between atoms: _393  and  _394
REMARK  166  A    between atoms: _398  and  _400
REMARK  167  A    between atoms: _400  and  _401
REMARK  168  A    between atoms: _400  and  _403
REMARK  169  A    between atoms: _403  and  _404
REMARK  170  A    between atoms: _404  and  _405
REMARK  171  A    between atoms: _407  and  _409
REMARK  172  A    between atoms: _409  and  _410
REMARK  173  A    between atoms: _409  and  _412
REMARK  174  A    between atoms: _412  and  _413
REMARK  175  A    between atoms: _416  and  _418
REMARK  176  A    between atoms: _418  and  _419
REMARK  177  A    between atoms: _421  and  _423
REMARK  178  A    between atoms: _423  and  _424
REMARK  179  A    between atoms: _426  and  _428
REMARK  180  A    between atoms: _428  and  _429
REMARK  181  A    between atoms: _428  and  _431
REMARK  182  A    between atoms: _431  and  _432
REMARK  183  A    between atoms: _435  and  _437
REMARK  184  A    between atoms: _437  and  _438
REMARK  185  A    between atoms: _440  and  _442
REMARK  186  A    between atoms: _442  and  _443
REMARK  187  A    between atoms: _445  and  _447
REMARK  188  A    between atoms: _447  and  _448
REMARK  189  A    between atoms: _447  and  _450
REMARK  190  A    between atoms: _450  and  _451
REMARK  191  A    between atoms: _457  and  _459
REMARK  192  A    between atoms: _459  and  _460
REMARK  193  A    between atoms: _459  and  _462
REMARK  194  A    between atoms: _462  and  _463
REMARK  195  A    between atoms: _466  and  _468
REMARK  196  A    between atoms: _468  and  _469
REMARK  197  A    between atoms: _468  and  _471
REMARK  198  A    between atoms: _474  and  _476
REMARK  199  A    between atoms: _476  and  _477
REMARK  200  A    between atoms: _476  and  _479
REMARK  201  A    between atoms: _479  and  _480
REMARK  202  A    between atoms: _483  and  _485
REMARK  203  A    between atoms: _485  and  _486
REMARK  204  A    between atoms: _485  and  _488
REMARK  205  A    between atoms: _488  and  _489
REMARK  206  A    between atoms: _493  and  _494
REMARK  207  A    between atoms: _499  and  _501
REMARK  208  A    between atoms: _501  and  _502
REMARK  209  A    between atoms: _501  and  _504
REMARK  210  A    between atoms: _507  and  _509
REMARK  211  A    between atoms: _509  and  _510
REMARK  212  A    between atoms: _509  and  _512
REMARK  213  A    between atoms: _512  and  _513
REMARK  214  A    between atoms: _518  and  _520
REMARK  215  A    between atoms: _520  and  _521
REMARK  216  A    between atoms: _520  and  _523
REMARK  217  A    between atoms: _523  and  _524
REMARK  218  A    between atoms: _527  and  _529
REMARK  219  A    between atoms: _529  and  _530
REMARK  220  A    between atoms: _529  and  _532
REMARK  221  A    between atoms: _532  and  _533
REMARK  222  A    between atoms: _536  and  _538
REMARK  223  A    between atoms: _538  and  _539
REMARK  224  A    between atoms: _541  and  _543
REMARK  225  A    between atoms: _543  and  _544
REMARK  226  A    between atoms: _543  and  _546
REMARK  227  A    between atoms: _546  and  _547
REMARK  228  A    between atoms: _547  and  _548
REMARK  229  A    between atoms: _548  and  _549
REMARK                            x       y       z     vdW  Elec       q    Type
REMARK                         _______ _______ _______ _____ _____    ______ ____
ROOT
ATOM      1  O   HOH     1      11.292  -6.457  25.921  0.00  0.00    +0.000 OA
ENDROOT
TORSDOF 0
REMARK  Name = ../refined-set-2016/1d4k/1d4k_pocket.pdb
REMARK  229 active torsions:
REMARK  status: ('A' for Active; 'I' for Inactive)
REMARK    1  A    between atoms: _1  and  _3
REMARK    2  A    between atoms: _3  and  _4
REMARK    3  A    between atoms: _3  and  _6
REMARK    4  A    between atoms: _6  and  _7
REMARK    5  A    between atoms: _7  and  _8
REMARK    6  A    between atoms: _8  and  _9
REMARK    7  A    between atoms: _18  and  _20
REMARK    8  A    between atoms: _20  and  _21
REMARK    9  A    between atoms: _20  and  _23
REMARK   10  A    between atoms: _23  and  _24
REMARK   11  A    between atoms: _27  and  _29
REMARK   12  A    between atoms: _29  and  _30
REMARK   13  A    between atoms: _29  and  _32
REMARK   14  A    between atoms: _32  and  _33
REMARK   15  A    between atoms: _36  and  _38
REMARK   16  A    between atoms: _38  and  _39
REMARK   17  A    between atoms: _38  and  _41
REMARK   18  A    between atoms: _41  and  _42
REMARK   19  A    between atoms: _45  and  _47
REMARK   20  A    between atoms: _47  and  _48
REMARK   21  A    between atoms: _47  and  _50
REMARK   22  A    between atoms: _50  and  _51
REMARK   23  A    between atoms: _54  and  _56
REMARK   24  A    between atoms: _56  and  _57
REMARK   25  A    between atoms: _56  and  _59
REMARK   26  A    between atoms: _59  and  _60
REMARK   27  A    between atoms: _63  and  _65
REMARK   28  A    between atoms: _65  and  _66
REMARK   29  A    between atoms: _68  and  _70
REMARK   30  A    between atoms: _70  and  _71
REMARK   31  A    between atoms: _74  and  _76
REMARK   32  A    between atoms: _76  and  _77
REMARK   33  A    between atoms: _76  and  _79
REMARK   34  A    between atoms: _79  and  _80
REMARK   35  A    between atoms: _83  and  _85
REMARK   36  A    between atoms: _85  and  _86
REMARK   37  A    between atoms: _85  and  _88
REMARK   38  A    between atoms: _88  and  _89
REMARK   39  A    between atoms: _92  and  _94
REMARK   40  A    between atoms: _94  and  _95
REMARK   41  A    between atoms: _94  and  _97
REMARK   42  A    between atoms: _97  and  _98
REMARK   43  A    between atoms: _101  and  _103
REMARK   44  A    between atoms: _103  and  _104
REMARK   45  A    between atoms: _103  and  _106
REMARK   46  A    between atoms: _109  and  _111
REMARK   47  A    between atoms: _111  and  _112
REMARK   48  A    between atoms: _111  and  _114
REMARK   49  A    between atoms: _114  and  _115
REMARK   50  A    between atoms: _118  and  _120
REMARK   51  A    between atoms: _120  and  _121
REMARK   52  A    between atoms: _120  and  _123
REMARK   53  A    between atoms: _123  and  _124
REMARK   54  A    between atoms: _124  and  _125
REMARK   55  A    between atoms: _127  and  _129
REMARK   56  A    between atoms: _129  and  _130
REMARK   57  A    between atoms: _129  and  _132
REMARK   58  A    between atoms: _132  and  _133
REMARK   59  A    between atoms: _136  and  _138
REMARK   60  A    between atoms: _138  and  _139
REMARK   61  A    between atoms: _141  and  _143
REMARK   62  A    between atoms: _143  and  _144
REMARK   63  A    between atoms: _146  and  _148
REMARK   64  A    between atoms: _148  and  _149
REMARK   65  A    between atoms: _148  and  _151
REMARK   66  A    between atoms: _151  and  _152
REMARK   67  A    between atoms: _155  and  _157
REMARK   68  A    between atoms: _157  and  _158
REMARK   69  A    between atoms: _160  and  _162
REMARK   70  A    between atoms: _162  and  _163
REMARK   71  A    between atoms: _165  and  _167
REMARK   72  A    between atoms: _167  and  _168
REMARK   73  A    between atoms: _167  and  _170
REMARK   74  A    between atoms: _170  and  _171
REMARK   75  A    between atoms: _174  and  _176
REMARK   76  A    between atoms: _176  and  _177
REMARK   77  A    between atoms: _176  and  _179
REMARK   78  A    between atoms: _182  and  _184
REMARK   79  A    between atoms: _184  and  _185
REMARK   80  A    between atoms: _184  and  _187
REMARK   81  A    between atoms: _187  and  _188
REMARK   82  A    between atoms: _191  and  _193
REMARK   83  A    between atoms: _193  and  _194
REMARK   84  A    between atoms: _193  and  _196
REMARK   85  A    between atoms: _196  and  _197
REMARK   86  A    between atoms: _201  and  _202
REMARK   87  A    between atoms: _207  and  _209
REMARK   88  A    between atoms: _209  and  _210
REMARK   89  A    between atoms: _209  and  _212
REMARK   90  A    between atoms: _215  and  _217
REMARK   91  A    between atoms: _217  and  _218
REMARK   92  A    between atoms: _217  and  _220
REMARK   93  A    between atoms: _220  and  _221
REMARK   94  A    between atoms: _226  and  _228
REMARK   95  A    between atoms: _228  and  _229
REMARK   96  A    between atoms: _228  and  _231
REMARK   97  A    between atoms: _231  and  _232
REMARK   98  A    between atoms: _235  and  _237
REMARK   99  A    between atoms: _237  and  _238
REMARK  100  A    between atoms: _237  and  _240
REMARK  101  A    between atoms: _240  and  _241
REMARK  102  A    between atoms: _244  and  _246
REMARK  103  A    between atoms: _246  and  _247
REMARK  104  A    between atoms: _249  and  _251
REMARK  105  A    between atoms: _251  and  _252
REMARK  106  A    between atoms: _251  and  _254
REMARK  107  A    between atoms: _254  and  _255
REMARK  108  A    between atoms: _255  and  _256
REMARK  109  A    between atoms: _256  and  _257
REMARK  110  A    between atoms: _266  and  _268
REMARK  111  A    between atoms: _268  and  _269
REMARK  112  A    between atoms: _268  and  _271
REMARK  113  A    between atoms: _271  and  _272
REMARK  114  A    between atoms: _277  and  _279
REMARK  115  A    between atoms: _279  and  _280
REMARK  116  A    between atoms: _279  and  _282
REMARK  117  A    between atoms: _282  and  _283
REMARK  118  A    between atoms: _283  and  _284
REMARK  119  A    between atoms: _284  and  _285
REMARK  120  A    between atoms: _294  and  _296
REMARK  121  A    between atoms: _296  and  _297
REMARK  122  A    between atoms: _296  and  _299
REMARK  123  A    between atoms: _299  and  _300
REMARK  124  A    between atoms: _303  and  _305
REMARK  125  A    between atoms: _305  and  _306
REMARK  126  A    between atoms: _305  and  _308
REMARK  127  A    between atoms: _308  and  _309
REMARK  128  A    between atoms: _312  and  _314
REMARK  129  A    between atoms: _314  and  _315
REMARK  130  A    between atoms: _314  and  _317
REMARK  131  A    between atoms: _317  and  _318
REMARK  132  A    between atoms: _321  and  _323
REMARK  133  A    between atoms: _323  and  _324
REMARK  134  A    between atoms: _323  and  _326
REMARK  135  A    between atoms: _326  and  _327
REMARK  136  A    between atoms: _330  and  _332
REMARK  137  A    between atoms: _332  and  _333
REMARK  138  A    between atoms: _332  and  _335
REMARK  139  A    between atoms: _335  and  _336
REMARK  140  A    between atoms: _339  and  _341
REMARK  141  A    between atoms: _341  and  _342
REMARK  142  A    between atoms: _344  and  _346
REMARK  143  A    between atoms: _346  and  _347
REMARK  144  A    between atoms: _350  and  _352
REMARK  145  A    between atoms: _352  and  _353
REMARK  146  A    between atoms: _352  and  _355
REMARK  147  A    between atoms: _355  and  _356
REMARK  148  A    between atoms: _359  and  _361
REMARK  149  A    between atoms: _361  and  _362
REMARK  150  A    between atoms: _361  and  _364
REMARK  151  A    between atoms: _364  and  _365
REMARK  152  A    between atoms: _368  and  _370
REMARK  153  A    between atoms: _370  and  _371
REMARK  154  A    between atoms: _370  and  _373
REMARK  155  A    between atoms: _373  and  _374
REMARK  156  A    between atoms: _377  and  _379
REMARK  157  A    between atoms: _379  and  _380
REMARK  158  A    between atoms: _379  and  _382
REMARK  159  A    between atoms: _385  and  _387
REMARK  160  A    between atoms: _387  and  _388
REMARK  161  A    between atoms: _387  and  _390
REMARK  162  A    between atoms: _390  and  _391
REMARK  163  A    between atoms: _391  and  _392
REMARK  164  A    between atoms: _392  and  _393
REMARK  165  A    between atoms: _393  and  _394
REMARK  166  A    between atoms: _398  and  _400
REMARK  167  A    between atoms: _400  and  _401
REMARK  168  A    between atoms: _400  and  _403
REMARK  169  A    between atoms: _403  and  _404
REMARK  170  A    between atoms: _404  and  _405
REMARK  171  A    between atoms: _407  and  _409
REMARK  172  A    between atoms: _409  and  _410
REMARK  173  A    between atoms: _409  and  _412
REMARK  174  A    between atoms: _412  and  _413
REMARK  175  A    between atoms: _416  and  _418
REMARK  176  A    between atoms: _418  and  _419
REMARK  177  A    between atoms: _421  and  _423
REMARK  178  A    between atoms: _423  and  _424
REMARK  179  A    between atoms: _426  and  _428
REMARK  180  A    between atoms: _428  and  _429
REMARK  181  A    between atoms: _428  and  _431
REMARK  182  A    between atoms: _431  and  _432
REMARK  183  A    between atoms: _435  and  _437
REMARK  184  A    between atoms: _437  and  _438
REMARK  185  A    between atoms: _440  and  _442
REMARK  186  A    between atoms: _442  and  _443
REMARK  187  A    between atoms: _445  and  _447
REMARK  188  A    between atoms: _447  and  _448
REMARK  189  A    between atoms: _447  and  _450
REMARK  190  A    between atoms: _450  and  _451
REMARK  191  A    between atoms: _457  and  _459
REMARK  192  A    between atoms: _459  and  _460
REMARK  193  A    between atoms: _459  and  _462
REMARK  194  A    between atoms: _462  and  _463
REMARK  195  A    between atoms: _466  and  _468
REMARK  196  A    between atoms: _468  and  _469
REMARK  197  A    between atoms: _468  and  _471
REMARK  198  A    between atoms: _474  and  _476
REMARK  199  A    between atoms: _476  and  _477
REMARK  200  A    between atoms: _476  and  _479
REMARK  201  A    between atoms: _479  and  _480
REMARK  202  A    between atoms: _483  and  _485
REMARK  203  A    between atoms: _485  and  _486
REMARK  204  A    between atoms: _485  and  _488
REMARK  205  A    between atoms: _488  and  _489
REMARK  206  A    between atoms: _493  and  _494
REMARK  207  A    between atoms: _499  and  _501
REMARK  208  A    between atoms: _501  and  _502
REMARK  209  A    between atoms: _501  and  _504
REMARK  210  A    between atoms: _507  and  _509
REMARK  211  A    between atoms: _509  and  _510
REMARK  212  A    between atoms: _509  and  _512
REMARK  213  A    between atoms: _512  and  _513
REMARK  214  A    between atoms: _518  and  _520
REMARK  215  A    between atoms: _520  and  _521
REMARK  216  A    between atoms: _520  and  _523
REMARK  217  A    between atoms: _523  and  _524
REMARK  218  A    between atoms: _527  and  _529
REMARK  219  A    between atoms: _529  and  _530
REMARK  220  A    between atoms: _529  and  _532
REMARK  221  A    between atoms: _532  and  _533
REMARK  222  A    between atoms: _536  and  _538
REMARK  223  A    between atoms: _538  and  _539
REMARK  224  A    between atoms: _541  and  _543
REMARK  225  A    between atoms: _543  and  _544
REMARK  226  A    between atoms: _543  and  _546
REMARK  227  A    between atoms: _546  and  _547
REMARK  228  A    between atoms: _547  and  _548
REMARK  229  A    between atoms: _548  and  _549
REMARK                            x       y       z     vdW  Elec       q    Type
REMARK                         _______ _______ _______ _____ _____    ______ ____
ROOT
ATOM      1  O   HOH     1       8.683 -12.051  16.065  0.00  0.00    +0.000 OA
ENDROOT
TORSDOF 0
REMARK  Name = ../refined-set-2016/1d4k/1d4k_pocket.pdb
REMARK  229 active torsions:
REMARK  status: ('A' for Active; 'I' for Inactive)
REMARK    1  A    between atoms: _1  and  _3
REMARK    2  A    between atoms: _3  and  _4
REMARK    3  A    between atoms: _3  and  _6
REMARK    4  A    between atoms: _6  and  _7
REMARK    5  A    between atoms: _7  and  _8
REMARK    6  A    between atoms: _8  and  _9
REMARK    7  A    between atoms: _18  and  _20
REMARK    8  A    between atoms: _20  and  _21
REMARK    9  A    between atoms: _20  and  _23
REMARK   10  A    between atoms: _23  and  _24
REMARK   11  A    between atoms: _27  and  _29
REMARK   12  A    between atoms: _29  and  _30
REMARK   13  A    between atoms: _29  and  _32
REMARK   14  A    between atoms: _32  and  _33
REMARK   15  A    between atoms: _36  and  _38
REMARK   16  A    between atoms: _38  and  _39
REMARK   17  A    between atoms: _38  and  _41
REMARK   18  A    between atoms: _41  and  _42
REMARK   19  A    between atoms: _45  and  _47
REMARK   20  A    between atoms: _47  and  _48
REMARK   21  A    between atoms: _47  and  _50
REMARK   22  A    between atoms: _50  and  _51
REMARK   23  A    between atoms: _54  and  _56
REMARK   24  A    between atoms: _56  and  _57
REMARK   25  A    between atoms: _56  and  _59
REMARK   26  A    between atoms: _59  and  _60
REMARK   27  A    between atoms: _63  and  _65
REMARK   28  A    between atoms: _65  and  _66
REMARK   29  A    between atoms: _68  and  _70
REMARK   30  A    between atoms: _70  and  _71
REMARK   31  A    between atoms: _74  and  _76
REMARK   32  A    between atoms: _76  and  _77
REMARK   33  A    between atoms: _76  and  _79
REMARK   34  A    between atoms: _79  and  _80
REMARK   35  A    between atoms: _83  and  _85
REMARK   36  A    between atoms: _85  and  _86
REMARK   37  A    between atoms: _85  and  _88
REMARK   38  A    between atoms: _88  and  _89
REMARK   39  A    between atoms: _92  and  _94
REMARK   40  A    between atoms: _94  and  _95
REMARK   41  A    between atoms: _94  and  _97
REMARK   42  A    between atoms: _97  and  _98
REMARK   43  A    between atoms: _101  and  _103
REMARK   44  A    between atoms: _103  and  _104
REMARK   45  A    between atoms: _103  and  _106
REMARK   46  A    between atoms: _109  and  _111
REMARK   47  A    between atoms: _111  and  _112
REMARK   48  A    between atoms: _111  and  _114
REMARK   49  A    between atoms: _114  and  _115
REMARK   50  A    between atoms: _118  and  _120
REMARK   51  A    between atoms: _120  and  _121
REMARK   52  A    between atoms: _120  and  _123
REMARK   53  A    between atoms: _123  and  _124
REMARK   54  A    between atoms: _124  and  _125
REMARK   55  A    between atoms: _127  and  _129
REMARK   56  A    between atoms: _129  and  _130
REMARK   57  A    between atoms: _129  and  _132
REMARK   58  A    between atoms: _132  and  _133
REMARK   59  A    between atoms: _136  and  _138
REMARK   60  A    between atoms: _138  and  _139
REMARK   61  A    between atoms: _141  and  _143
REMARK   62  A    between atoms: _143  and  _144
REMARK   63  A    between atoms: _146  and  _148
REMARK   64  A    between atoms: _148  and  _149
REMARK   65  A    between atoms: _148  and  _151
REMARK   66  A    between atoms: _151  and  _152
REMARK   67  A    between atoms: _155  and  _157
REMARK   68  A    between atoms: _157  and  _158
REMARK   69  A    between atoms: _160  and  _162
REMARK   70  A    between atoms: _162  and  _163
REMARK   71  A    between atoms: _165  and  _167
REMARK   72  A    between atoms: _167  and  _168
REMARK   73  A    between atoms: _167  and  _170
REMARK   74  A    between atoms: _170  and  _171
REMARK   75  A    between atoms: _174  and  _176
REMARK   76  A    between atoms: _176  and  _177
REMARK   77  A    between atoms: _176  and  _179
REMARK   78  A    between atoms: _182  and  _184
REMARK   79  A    between atoms: _184  and  _185
REMARK   80  A    between atoms: _184  and  _187
REMARK   81  A    between atoms: _187  and  _188
REMARK   82  A    between atoms: _191  and  _193
REMARK   83  A    between atoms: _193  and  _194
REMARK   84  A    between atoms: _193  and  _196
REMARK   85  A    between atoms: _196  and  _197
REMARK   86  A    between atoms: _201  and  _202
REMARK   87  A    between atoms: _207  and  _209
REMARK   88  A    between atoms: _209  and  _210
REMARK   89  A    between atoms: _209  and  _212
REMARK   90  A    between atoms: _215  and  _217
REMARK   91  A    between atoms: _217  and  _218
REMARK   92  A    between atoms: _217  and  _220
REMARK   93  A    between atoms: _220  and  _221
REMARK   94  A    between atoms: _226  and  _228
REMARK   95  A    between atoms: _228  and  _229
REMARK   96  A    between atoms: _228  and  _231
REMARK   97  A    between atoms: _231  and  _232
REMARK   98  A    between atoms: _235  and  _237
REMARK   99  A    between atoms: _237  and  _238
REMARK  100  A    between atoms: _237  and  _240
REMARK  101  A    between atoms: _240  and  _241
REMARK  102  A    between atoms: _244  and  _246
REMARK  103  A    between atoms: _246  and  _247
REMARK  104  A    between atoms: _249  and  _251
REMARK  105  A    between atoms: _251  and  _252
REMARK  106  A    between atoms: _251  and  _254
REMARK  107  A    between atoms: _254  and  _255
REMARK  108  A    between atoms: _255  and  _256
REMARK  109  A    between atoms: _256  and  _257
REMARK  110  A    between atoms: _266  and  _268
REMARK  111  A    between atoms: _268  and  _269
REMARK  112  A    between atoms: _268  and  _271
REMARK  113  A    between atoms: _271  and  _272
REMARK  114  A    between atoms: _277  and  _279
REMARK  115  A    between atoms: _279  and  _280
REMARK  116  A    between atoms: _279  and  _282
REMARK  117  A    between atoms: _282  and  _283
REMARK  118  A    between atoms: _283  and  _284
REMARK  119  A    between atoms: _284  and  _285
REMARK  120  A    between atoms: _294  and  _296
REMARK  121  A    between atoms: _296  and  _297
REMARK  122  A    between atoms: _296  and  _299
REMARK  123  A    between atoms: _299  and  _300
REMARK  124  A    between atoms: _303  and  _305
REMARK  125  A    between atoms: _305  and  _306
REMARK  126  A    between atoms: _305  and  _308
REMARK  127  A    between atoms: _308  and  _309
REMARK  128  A    between atoms: _312  and  _314
REMARK  129  A    between atoms: _314  and  _315
REMARK  130  A    between atoms: _314  and  _317
REMARK  131  A    between atoms: _317  and  _318
REMARK  132  A    between atoms: _321  and  _323
REMARK  133  A    between atoms: _323  and  _324
REMARK  134  A    between atoms: _323  and  _326
REMARK  135  A    between atoms: _326  and  _327
REMARK  136  A    between atoms: _330  and  _332
REMARK  137  A    between atoms: _332  and  _333
REMARK  138  A    between atoms: _332  and  _335
REMARK  139  A    between atoms: _335  and  _336
REMARK  140  A    between atoms: _339  and  _341
REMARK  141  A    between atoms: _341  and  _342
REMARK  142  A    between atoms: _344  and  _346
REMARK  143  A    between atoms: _346  and  _347
REMARK  144  A    between atoms: _350  and  _352
REMARK  145  A    between atoms: _352  and  _353
REMARK  146  A    between atoms: _352  and  _355
REMARK  147  A    between atoms: _355  and  _356
REMARK  148  A    between atoms: _359  and  _361
REMARK  149  A    between atoms: _361  and  _362
REMARK  150  A    between atoms: _361  and  _364
REMARK  151  A    between atoms: _364  and  _365
REMARK  152  A    between atoms: _368  and  _370
REMARK  153  A    between atoms: _370  and  _371
REMARK  154  A    between atoms: _370  and  _373
REMARK  155  A    between atoms: _373  and  _374
REMARK  156  A    between atoms: _377  and  _379
REMARK  157  A    between atoms: _379  and  _380
REMARK  158  A    between atoms: _379  and  _382
REMARK  159  A    between atoms: _385  and  _387
REMARK  160  A    between atoms: _387  and  _388
REMARK  161  A    between atoms: _387  and  _390
REMARK  162  A    between atoms: _390  and  _391
REMARK  163  A    between atoms: _391  and  _392
REMARK  164  A    between atoms: _392  and  _393
REMARK  165  A    between atoms: _393  and  _394
REMARK  166  A    between atoms: _398  and  _400
REMARK  167  A    between atoms: _400  and  _401
REMARK  168  A    between atoms: _400  and  _403
REMARK  169  A    between atoms: _403  and  _404
REMARK  170  A    between atoms: _404  and  _405
REMARK  171  A    between atoms: _407  and  _409
REMARK  172  A    between atoms: _409  and  _410
REMARK  173  A    between atoms: _409  and  _412
REMARK  174  A    between atoms: _412  and  _413
REMARK  175  A    between atoms: _416  and  _418
REMARK  176  A    between atoms: _418  and  _419
REMARK  177  A    between atoms: _421  and  _423
REMARK  178  A    between atoms: _423  and  _424
REMARK  179  A    between atoms: _426  and  _428
REMARK  180  A    between atoms: _428  and  _429
REMARK  181  A    between atoms: _428  and  _431
REMARK  182  A    between atoms: _431  and  _432
REMARK  183  A    between atoms: _435  and  _437
REMARK  184  A    between atoms: _437  and  _438
REMARK  185  A    between atoms: _440  and  _442
REMARK  186  A    between atoms: _442  and  _443
REMARK  187  A    between atoms: _445  and  _447
REMARK  188  A    between atoms: _447  and  _448
REMARK  189  A    between atoms: _447  and  _450
REMARK  190  A    between atoms: _450  and  _451
REMARK  191  A    between atoms: _457  and  _459
REMARK  192  A    between atoms: _459  and  _460
REMARK  193  A    between atoms: _459  and  _462
REMARK  194  A    between atoms: _462  and  _463
REMARK  195  A    between atoms: _466  and  _468
REMARK  196  A    between atoms: _468  and  _469
REMARK  197  A    between atoms: _468  and  _471
REMARK  198  A    between atoms: _474  and  _476
REMARK  199  A    between atoms: _476  and  _477
REMARK  200  A    between atoms: _476  and  _479
REMARK  201  A    between atoms: _479  and  _480
REMARK  202  A    between atoms: _483  and  _485
REMARK  203  A    between atoms: _485  and  _486
REMARK  204  A    between atoms: _485  and  _488
REMARK  205  A    between atoms: _488  and  _489
REMARK  206  A    between atoms: _493  and  _494
REMARK  207  A    between atoms: _499  and  _501
REMARK  208  A    between atoms: _501  and  _502
REMARK  209  A    between atoms: _501  and  _504
REMARK  210  A    between atoms: _507  and  _509
REMARK  211  A    between atoms: _509  and  _510
REMARK  212  A    between atoms: _509  and  _512
REMARK  213  A    between atoms: _512  and  _513
REMARK  214  A    between atoms: _518  and  _520
REMARK  215  A    between atoms: _520  and  _521
REMARK  216  A    between atoms: _520  and  _523
REMARK  217  A    between atoms: _523  and  _524
REMARK  218  A    between atoms: _527  and  _529
REMARK  219  A    between atoms: _529  and  _530
REMARK  220  A    between atoms: _529  and  _532
REMARK  221  A    between atoms: _532  and  _533
REMARK  222  A    between atoms: _536  and  _538
REMARK  223  A    between atoms: _538  and  _539
REMARK  224  A    between atoms: _541  and  _543
REMARK  225  A    between atoms: _543  and  _544
REMARK  226  A    between atoms: _543  and  _546
REMARK  227  A    between atoms: _546  and  _547
REMARK  228  A    between atoms: _547  and  _548
REMARK  229  A    between atoms: _548  and  _549
REMARK                            x       y       z     vdW  Elec       q    Type
REMARK                         _______ _______ _______ _____ _____    ______ ____
ROOT
ATOM      1  O   HOH     1      10.817 -10.873  20.092  0.00  0.00    +0.000 OA
ENDROOT
TORSDOF 0
REMARK  Name = ../refined-set-2016/1d4k/1d4k_pocket.pdb
REMARK  229 active torsions:
REMARK  status: ('A' for Active; 'I' for Inactive)
REMARK    1  A    between atoms: _1  and  _3
REMARK    2  A    between atoms: _3  and  _4
REMARK    3  A    between atoms: _3  and  _6
REMARK    4  A    between atoms: _6  and  _7
REMARK    5  A    between atoms: _7  and  _8
REMARK    6  A    between atoms: _8  and  _9
REMARK    7  A    between atoms: _18  and  _20
REMARK    8  A    between atoms: _20  and  _21
REMARK    9  A    between atoms: _20  and  _23
REMARK   10  A    between atoms: _23  and  _24
REMARK   11  A    between atoms: _27  and  _29
REMARK   12  A    between atoms: _29  and  _30
REMARK   13  A    between atoms: _29  and  _32
REMARK   14  A    between atoms: _32  and  _33
REMARK   15  A    between atoms: _36  and  _38
REMARK   16  A    between atoms: _38  and  _39
REMARK   17  A    between atoms: _38  and  _41
REMARK   18  A    between atoms: _41  and  _42
REMARK   19  A    between atoms: _45  and  _47
REMARK   20  A    between atoms: _47  and  _48
REMARK   21  A    between atoms: _47  and  _50
REMARK   22  A    between atoms: _50  and  _51
REMARK   23  A    between atoms: _54  and  _56
REMARK   24  A    between atoms: _56  and  _57
REMARK   25  A    between atoms: _56  and  _59
REMARK   26  A    between atoms: _59  and  _60
REMARK   27  A    between atoms: _63  and  _65
REMARK   28  A    between atoms: _65  and  _66
REMARK   29  A    between atoms: _68  and  _70
REMARK   30  A    between atoms: _70  and  _71
REMARK   31  A    between atoms: _74  and  _76
REMARK   32  A    between atoms: _76  and  _77
REMARK   33  A    between atoms: _76  and  _79
REMARK   34  A    between atoms: _79  and  _80
REMARK   35  A    between atoms: _83  and  _85
REMARK   36  A    between atoms: _85  and  _86
REMARK   37  A    between atoms: _85  and  _88
REMARK   38  A    between atoms: _88  and  _89
REMARK   39  A    between atoms: _92  and  _94
REMARK   40  A    between atoms: _94  and  _95
REMARK   41  A    between atoms: _94  and  _97
REMARK   42  A    between atoms: _97  and  _98
REMARK   43  A    between atoms: _101  and  _103
REMARK   44  A    between atoms: _103  and  _104
REMARK   45  A    between atoms: _103  and  _106
REMARK   46  A    between atoms: _109  and  _111
REMARK   47  A    between atoms: _111  and  _112
REMARK   48  A    between atoms: _111  and  _114
REMARK   49  A    between atoms: _114  and  _115
REMARK   50  A    between atoms: _118  and  _120
REMARK   51  A    between atoms: _120  and  _121
REMARK   52  A    between atoms: _120  and  _123
REMARK   53  A    between atoms: _123  and  _124
REMARK   54  A    between atoms: _124  and  _125
REMARK   55  A    between atoms: _127  and  _129
REMARK   56  A    between atoms: _129  and  _130
REMARK   57  A    between atoms: _129  and  _132
REMARK   58  A    between atoms: _132  and  _133
REMARK   59  A    between atoms: _136  and  _138
REMARK   60  A    between atoms: _138  and  _139
REMARK   61  A    between atoms: _141  and  _143
REMARK   62  A    between atoms: _143  and  _144
REMARK   63  A    between atoms: _146  and  _148
REMARK   64  A    between atoms: _148  and  _149
REMARK   65  A    between atoms: _148  and  _151
REMARK   66  A    between atoms: _151  and  _152
REMARK   67  A    between atoms: _155  and  _157
REMARK   68  A    between atoms: _157  and  _158
REMARK   69  A    between atoms: _160  and  _162
REMARK   70  A    between atoms: _162  and  _163
REMARK   71  A    between atoms: _165  and  _167
REMARK   72  A    between atoms: _167  and  _168
REMARK   73  A    between atoms: _167  and  _170
REMARK   74  A    between atoms: _170  and  _171
REMARK   75  A    between atoms: _174  and  _176
REMARK   76  A    between atoms: _176  and  _177
REMARK   77  A    between atoms: _176  and  _179
REMARK   78  A    between atoms: _182  and  _184
REMARK   79  A    between atoms: _184  and  _185
REMARK   80  A    between atoms: _184  and  _187
REMARK   81  A    between atoms: _187  and  _188
REMARK   82  A    between atoms: _191  and  _193
REMARK   83  A    between atoms: _193  and  _194
REMARK   84  A    between atoms: _193  and  _196
REMARK   85  A    between atoms: _196  and  _197
REMARK   86  A    between atoms: _201  and  _202
REMARK   87  A    between atoms: _207  and  _209
REMARK   88  A    between atoms: _209  and  _210
REMARK   89  A    between atoms: _209  and  _212
REMARK   90  A    between atoms: _215  and  _217
REMARK   91  A    between atoms: _217  and  _218
REMARK   92  A    between atoms: _217  and  _220
REMARK   93  A    between atoms: _220  and  _221
REMARK   94  A    between atoms: _226  and  _228
REMARK   95  A    between atoms: _228  and  _229
REMARK   96  A    between atoms: _228  and  _231
REMARK   97  A    between atoms: _231  and  _232
REMARK   98  A    between atoms: _235  and  _237
REMARK   99  A    between atoms: _237  and  _238
REMARK  100  A    between atoms: _237  and  _240
REMARK  101  A    between atoms: _240  and  _241
REMARK  102  A    between atoms: _244  and  _246
REMARK  103  A    between atoms: _246  and  _247
REMARK  104  A    between atoms: _249  and  _251
REMARK  105  A    between atoms: _251  and  _252
REMARK  106  A    between atoms: _251  and  _254
REMARK  107  A    between atoms: _254  and  _255
REMARK  108  A    between atoms: _255  and  _256
REMARK  109  A    between atoms: _256  and  _257
REMARK  110  A    between atoms: _266  and  _268
REMARK  111  A    between atoms: _268  and  _269
REMARK  112  A    between atoms: _268  and  _271
REMARK  113  A    between atoms: _271  and  _272
REMARK  114  A    between atoms: _277  and  _279
REMARK  115  A    between atoms: _279  and  _280
REMARK  116  A    between atoms: _279  and  _282
REMARK  117  A    between atoms: _282  and  _283
REMARK  118  A    between atoms: _283  and  _284
REMARK  119  A    between atoms: _284  and  _285
REMARK  120  A    between atoms: _294  and  _296
REMARK  121  A    between atoms: _296  and  _297
REMARK  122  A    between atoms: _296  and  _299
REMARK  123  A    between atoms: _299  and  _300
REMARK  124  A    between atoms: _303  and  _305
REMARK  125  A    between atoms: _305  and  _306
REMARK  126  A    between atoms: _305  and  _308
REMARK  127  A    between atoms: _308  and  _309
REMARK  128  A    between atoms: _312  and  _314
REMARK  129  A    between atoms: _314  and  _315
REMARK  130  A    between atoms: _314  and  _317
REMARK  131  A    between atoms: _317  and  _318
REMARK  132  A    between atoms: _321  and  _323
REMARK  133  A    between atoms: _323  and  _324
REMARK  134  A    between atoms: _323  and  _326
REMARK  135  A    between atoms: _326  and  _327
REMARK  136  A    between atoms: _330  and  _332
REMARK  137  A    between atoms: _332  and  _333
REMARK  138  A    between atoms: _332  and  _335
REMARK  139  A    between atoms: _335  and  _336
REMARK  140  A    between atoms: _339  and  _341
REMARK  141  A    between atoms: _341  and  _342
REMARK  142  A    between atoms: _344  and  _346
REMARK  143  A    between atoms: _346  and  _347
REMARK  144  A    between atoms: _350  and  _352
REMARK  145  A    between atoms: _352  and  _353
REMARK  146  A    between atoms: _352  and  _355
REMARK  147  A    between atoms: _355  and  _356
REMARK  148  A    between atoms: _359  and  _361
REMARK  149  A    between atoms: _361  and  _362
REMARK  150  A    between atoms: _361  and  _364
REMARK  151  A    between atoms: _364  and  _365
REMARK  152  A    between atoms: _368  and  _370
REMARK  153  A    between atoms: _370  and  _371
REMARK  154  A    between atoms: _370  and  _373
REMARK  155  A    between atoms: _373  and  _374
REMARK  156  A    between atoms: _377  and  _379
REMARK  157  A    between atoms: _379  and  _380
REMARK  158  A    between atoms: _379  and  _382
REMARK  159  A    between atoms: _385  and  _387
REMARK  160  A    between atoms: _387  and  _388
REMARK  161  A    between atoms: _387  and  _390
REMARK  162  A    between atoms: _390  and  _391
REMARK  163  A    between atoms: _391  and  _392
REMARK  164  A    between atoms: _392  and  _393
REMARK  165  A    between atoms: _393  and  _394
REMARK  166  A    between atoms: _398  and  _400
REMARK  167  A    between atoms: _400  and  _401
REMARK  168  A    between atoms: _400  and  _403
REMARK  169  A    between atoms: _403  and  _404
REMARK  170  A    between atoms: _404  and  _405
REMARK  171  A    between atoms: _407  and  _409
REMARK  172  A    between atoms: _409  and  _410
REMARK  173  A    between atoms: _409  and  _412
REMARK  174  A    between atoms: _412  and  _413
REMARK  175  A    between atoms: _416  and  _418
REMARK  176  A    between atoms: _418  and  _419
REMARK  177  A    between atoms: _421  and  _423
REMARK  178  A    between atoms: _423  and  _424
REMARK  179  A    between atoms: _426  and  _428
REMARK  180  A    between atoms: _428  and  _429
REMARK  181  A    between atoms: _428  and  _431
REMARK  182  A    between atoms: _431  and  _432
REMARK  183  A    between atoms: _435  and  _437
REMARK  184  A    between atoms: _437  and  _438
REMARK  185  A    between atoms: _440  and  _442
REMARK  186  A    between atoms: _442  and  _443
REMARK  187  A    between atoms: _445  and  _447
REMARK  188  A    between atoms: _447  and  _448
REMARK  189  A    between atoms: _447  and  _450
REMARK  190  A    between atoms: _450  and  _451
REMARK  191  A    between atoms: _457  and  _459
REMARK  192  A    between atoms: _459  and  _460
REMARK  193  A    between atoms: _459  and  _462
REMARK  194  A    between atoms: _462  and  _463
REMARK  195  A    between atoms: _466  and  _468
REMARK  196  A    between atoms: _468  and  _469
REMARK  197  A    between atoms: _468  and  _471
REMARK  198  A    between atoms: _474  and  _476
REMARK  199  A    between atoms: _476  and  _477
REMARK  200  A    between atoms: _476  and  _479
REMARK  201  A    between atoms: _479  and  _480
REMARK  202  A    between atoms: _483  and  _485
REMARK  203  A    between atoms: _485  and  _486
REMARK  204  A    between atoms: _485  and  _488
REMARK  205  A    between atoms: _488  and  _489
REMARK  206  A    between atoms: _493  and  _494
REMARK  207  A    between atoms: _499  and  _501
REMARK  208  A    between atoms: _501  and  _502
REMARK  209  A    between atoms: _501  and  _504
REMARK  210  A    between atoms: _507  and  _509
REMARK  211  A    between atoms: _509  and  _510
REMARK  212  A    between atoms: _509  and  _512
REMARK  213  A    between atoms: _512  and  _513
REMARK  214  A    between atoms: _518  and  _520
REMARK  215  A    between atoms: _520  and  _521
REMARK  216  A    between atoms: _520  and  _523
REMARK  217  A    between atoms: _523  and  _524
REMARK  218  A    between atoms: _527  and  _529
REMARK  219  A    between atoms: _529  and  _530
REMARK  220  A    between atoms: _529  and  _532
REMARK  221  A    between atoms: _532  and  _533
REMARK  222  A    between atoms: _536  and  _538
REMARK  223  A    between atoms: _538  and  _539
REMARK  224  A    between atoms: _541  and  _543
REMARK  225  A    between atoms: _543  and  _544
REMARK  226  A    between atoms: _543  and  _546
REMARK  227  A    between atoms: _546  and  _547
REMARK  228  A    between atoms: _547  and  _548
REMARK  229  A    between atoms: _548  and  _549
REMARK                            x       y       z     vdW  Elec       q    Type
REMARK                         _______ _______ _______ _____ _____    ______ ____
ROOT
ATOM      1  O   HOH     1      10.693   9.239  10.129  0.00  0.00    +0.000 OA
ENDROOT
TORSDOF 0
