REMARK  Name = ../refined-set-2016/3v5p/3v5p_pocket.pdb
REMARK  215 active torsions:
REMARK  status: ('A' for Active; 'I' for Inactive)
REMARK    1  A    between atoms: _1  and  _3
REMARK    2  A    between atoms: _3  and  _4
REMARK    3  A    between atoms: _3  and  _6
REMARK    4  A    between atoms: _9  and  _11
REMARK    5  A    between atoms: _11  and  _12
REMARK    6  A    between atoms: _11  and  _14
REMARK    7  A    between atoms: _14  and  _15
REMARK    8  A    between atoms: _18  and  _20
REMARK    9  A    between atoms: _20  and  _21
REMARK   10  A    between atoms: _23  and  _25
REMARK   11  A    between atoms: _25  and  _26
REMARK   12  A    between atoms: _25  and  _28
REMARK   13  A    between atoms: _28  and  _29
REMARK   14  A    between atoms: _29  and  _30
REMARK   15  A    between atoms: _30  and  _31
REMARK   16  A    between atoms: _31  and  _32
REMARK   17  A    between atoms: _36  and  _38
REMARK   18  A    between atoms: _38  and  _39
REMARK   19  A    between atoms: _41  and  _43
REMARK   20  A    between atoms: _43  and  _44
REMARK   21  A    between atoms: _43  and  _46
REMARK   22  A    between atoms: _46  and  _47
REMARK   23  A    between atoms: _49  and  _51
REMARK   24  A    between atoms: _51  and  _52
REMARK   25  A    between atoms: _51  and  _54
REMARK   26  A    between atoms: _54  and  _55
REMARK   27  A    between atoms: _61  and  _63
REMARK   28  A    between atoms: _63  and  _64
REMARK   29  A    between atoms: _66  and  _68
REMARK   30  A    between atoms: _68  and  _69
REMARK   31  A    between atoms: _68  and  _71
REMARK   32  A    between atoms: _71  and  _72
REMARK   33  A    between atoms: _72  and  _73
REMARK   34  A    between atoms: _76  and  _78
REMARK   35  A    between atoms: _78  and  _79
REMARK   36  A    between atoms: _78  and  _81
REMARK   37  A    between atoms: _84  and  _86
REMARK   38  A    between atoms: _86  and  _87
REMARK   39  A    between atoms: _86  and  _89
REMARK   40  A    between atoms: _89  and  _90
REMARK   41  A    between atoms: _93  and  _95
REMARK   42  A    between atoms: _95  and  _96
REMARK   43  A    between atoms: _95  and  _98
REMARK   44  A    between atoms: _98  and  _99
REMARK   45  A    between atoms: _102  and  _104
REMARK   46  A    between atoms: _104  and  _105
REMARK   47  A    between atoms: _104  and  _107
REMARK   48  A    between atoms: _109  and  _111
REMARK   49  A    between atoms: _111  and  _112
REMARK   50  A    between atoms: _115  and  _117
REMARK   51  A    between atoms: _117  and  _118
REMARK   52  A    between atoms: _117  and  _120
REMARK   53  A    between atoms: _123  and  _125
REMARK   54  A    between atoms: _125  and  _126
REMARK   55  A    between atoms: _125  and  _128
REMARK   56  A    between atoms: _128  and  _129
REMARK   57  A    between atoms: _129  and  _130
REMARK   58  A    between atoms: _130  and  _131
REMARK   59  A    between atoms: _131  and  _132
REMARK   60  A    between atoms: _136  and  _138
REMARK   61  A    between atoms: _138  and  _139
REMARK   62  A    between atoms: _138  and  _141
REMARK   63  A    between atoms: _144  and  _146
REMARK   64  A    between atoms: _146  and  _147
REMARK   65  A    between atoms: _146  and  _149
REMARK   66  A    between atoms: _149  and  _150
REMARK   67  A    between atoms: _153  and  _155
REMARK   68  A    between atoms: _155  and  _156
REMARK   69  A    between atoms: _155  and  _158
REMARK   70  A    between atoms: _158  and  _159
REMARK   71  A    between atoms: _162  and  _164
REMARK   72  A    between atoms: _164  and  _165
REMARK   73  A    between atoms: _164  and  _167
REMARK   74  A    between atoms: _167  and  _168
REMARK   75  A    between atoms: _168  and  _169
REMARK   76  A    between atoms: _171  and  _173
REMARK   77  A    between atoms: _173  and  _174
REMARK   78  A    between atoms: _173  and  _176
REMARK   79  A    between atoms: _176  and  _177
REMARK   80  A    between atoms: _177  and  _178
REMARK   81  A    between atoms: _178  and  _179
REMARK   82  A    between atoms: _179  and  _180
REMARK   83  A    between atoms: _184  and  _186
REMARK   84  A    between atoms: _186  and  _187
REMARK   85  A    between atoms: _186  and  _189
REMARK   86  A    between atoms: _189  and  _190
REMARK   87  A    between atoms: _193  and  _195
REMARK   88  A    between atoms: _195  and  _196
REMARK   89  A    between atoms: _195  and  _198
REMARK   90  A    between atoms: _198  and  _199
REMARK   91  A    between atoms: _204  and  _205
REMARK   92  A    between atoms: _207  and  _209
REMARK   93  A    between atoms: _209  and  _210
REMARK   94  A    between atoms: _209  and  _212
REMARK   95  A    between atoms: _212  and  _213
REMARK   96  A    between atoms: _213  and  _214
REMARK   97  A    between atoms: _217  and  _219
REMARK   98  A    between atoms: _219  and  _220
REMARK   99  A    between atoms: _219  and  _222
REMARK  100  A    between atoms: _222  and  _223
REMARK  101  A    between atoms: _228  and  _229
REMARK  102  A    between atoms: _231  and  _233
REMARK  103  A    between atoms: _233  and  _234
REMARK  104  A    between atoms: _233  and  _236
REMARK  105  A    between atoms: _236  and  _237
REMARK  106  A    between atoms: _240  and  _242
REMARK  107  A    between atoms: _242  and  _243
REMARK  108  A    between atoms: _242  and  _245
REMARK  109  A    between atoms: _248  and  _250
REMARK  110  A    between atoms: _250  and  _251
REMARK  111  A    between atoms: _253  and  _255
REMARK  112  A    between atoms: _255  and  _256
REMARK  113  A    between atoms: _255  and  _258
REMARK  114  A    between atoms: _258  and  _259
REMARK  115  A    between atoms: _259  and  _260
REMARK  116  A    between atoms: _263  and  _265
REMARK  117  A    between atoms: _265  and  _266
REMARK  118  A    between atoms: _265  and  _268
REMARK  119  A    between atoms: _271  and  _273
REMARK  120  A    between atoms: _273  and  _274
REMARK  121  A    between atoms: _273  and  _276
REMARK  122  A    between atoms: _276  and  _277
REMARK  123  A    between atoms: _282  and  _283
REMARK  124  A    between atoms: _285  and  _287
REMARK  125  A    between atoms: _287  and  _288
REMARK  126  A    between atoms: _287  and  _290
REMARK  127  A    between atoms: _290  and  _291
REMARK  128  A    between atoms: _294  and  _296
REMARK  129  A    between atoms: _296  and  _297
REMARK  130  A    between atoms: _299  and  _301
REMARK  131  A    between atoms: _301  and  _302
REMARK  132  A    between atoms: _304  and  _306
REMARK  133  A    between atoms: _306  and  _307
REMARK  134  A    between atoms: _306  and  _309
REMARK  135  A    between atoms: _309  and  _310
REMARK  136  A    between atoms: _310  and  _311
REMARK  137  A    between atoms: _314  and  _316
REMARK  138  A    between atoms: _316  and  _317
REMARK  139  A    between atoms: _316  and  _319
REMARK  140  A    between atoms: _319  and  _320
REMARK  141  A    between atoms: _323  and  _325
REMARK  142  A    between atoms: _325  and  _326
REMARK  143  A    between atoms: _325  and  _328
REMARK  144  A    between atoms: _328  and  _329
REMARK  145  A    between atoms: _333  and  _334
REMARK  146  A    between atoms: _339  and  _341
REMARK  147  A    between atoms: _341  and  _342
REMARK  148  A    between atoms: _341  and  _344
REMARK  149  A    between atoms: _344  and  _345
REMARK  150  A    between atoms: _345  and  _346
REMARK  151  A    between atoms: _349  and  _351
REMARK  152  A    between atoms: _351  and  _352
REMARK  153  A    between atoms: _351  and  _354
REMARK  154  A    between atoms: _354  and  _355
REMARK  155  A    between atoms: _360  and  _362
REMARK  156  A    between atoms: _362  and  _363
REMARK  157  A    between atoms: _362  and  _365
REMARK  158  A    between atoms: _365  and  _366
REMARK  159  A    between atoms: _369  and  _371
REMARK  160  A    between atoms: _371  and  _372
REMARK  161  A    between atoms: _371  and  _374
REMARK  162  A    between atoms: _374  and  _375
REMARK  163  A    between atoms: _378  and  _380
REMARK  164  A    between atoms: _380  and  _381
REMARK  165  A    between atoms: _380  and  _383
REMARK  166  A    between atoms: _383  and  _384
REMARK  167  A    between atoms: _387  and  _389
REMARK  168  A    between atoms: _389  and  _390
REMARK  169  A    between atoms: _389  and  _392
REMARK  170  A    between atoms: _392  and  _393
REMARK  171  A    between atoms: _393  and  _394
REMARK  172  A    between atoms: _397  and  _399
REMARK  173  A    between atoms: _399  and  _400
REMARK  174  A    between atoms: _399  and  _402
REMARK  175  A    between atoms: _402  and  _403
REMARK  176  A    between atoms: _403  and  _404
REMARK  177  A    between atoms: _404  and  _405
REMARK  178  A    between atoms: _414  and  _416
REMARK  179  A    between atoms: _416  and  _417
REMARK  180  A    between atoms: _416  and  _419
REMARK  181  A    between atoms: _419  and  _420
REMARK  182  A    between atoms: _423  and  _425
REMARK  183  A    between atoms: _425  and  _426
REMARK  184  A    between atoms: _425  and  _428
REMARK  185  A    between atoms: _428  and  _429
REMARK  186  A    between atoms: _432  and  _434
REMARK  187  A    between atoms: _434  and  _435
REMARK  188  A    between atoms: _434  and  _437
REMARK  189  A    between atoms: _437  and  _438
REMARK  190  A    between atoms: _441  and  _443
REMARK  191  A    between atoms: _443  and  _444
REMARK  192  A    between atoms: _443  and  _446
REMARK  193  A    between atoms: _446  and  _447
REMARK  194  A    between atoms: _453  and  _455
REMARK  195  A    between atoms: _455  and  _456
REMARK  196  A    between atoms: _458  and  _460
REMARK  197  A    between atoms: _460  and  _461
REMARK  198  A    between atoms: _460  and  _463
REMARK  199  A    between atoms: _463  and  _464
REMARK  200  A    between atoms: _467  and  _469
REMARK  201  A    between atoms: _469  and  _470
REMARK  202  A    between atoms: _469  and  _472
REMARK  203  A    between atoms: _472  and  _473
REMARK  204  A    between atoms: _479  and  _481
REMARK  205  A    between atoms: _481  and  _482
REMARK  206  A    between atoms: _481  and  _484
REMARK  207  A    between atoms: _484  and  _485
REMARK  208  A    between atoms: _485  and  _486
REMARK  209  A    between atoms: _486  and  _487
REMARK  210  A    between atoms: _487  and  _488
REMARK  211  A    between atoms: _492  and  _494
REMARK  212  A    between atoms: _494  and  _495
REMARK  213  A    between atoms: _494  and  _497
REMARK  214  A    between atoms: _497  and  _498
REMARK  215  A    between atoms: _498  and  _499
REMARK                            x       y       z     vdW  Elec       q    Type
REMARK                         _______ _______ _______ _____ _____    ______ ____
ROOT
ATOM      1  CA  PHE A   7      19.304  23.648  33.582  0.00  0.00    +0.153 C 
ENDROOT
BRANCH   1   2
ATOM      2  C   PHE A   7      20.165  23.414  34.829  0.00  0.00    +0.241 C 
ATOM      3  O   PHE A   7      19.724  23.719  35.940  0.00  0.00    -0.273 OA
ATOM      4  N   GLY A   8      21.384  22.902  34.653  0.00  0.00    -0.295 N 
ATOM      5  H   GLY A   8      21.692  22.645  33.693  0.00  0.00    +0.150 HD
BRANCH   4   6
ATOM      6  CA  GLY A   8      22.296  22.693  35.772  0.00  0.00    +0.176 C 
BRANCH   6   7
ATOM      7  C   GLY A   8      23.552  21.919  35.419  0.00  0.00    +0.243 C 
ATOM      8  N   GLU A   9      24.371  21.677  36.435  0.00  0.00    -0.297 N 
ATOM      9  H   GLU A   9      24.114  22.031  37.379  0.00  0.00    +0.150 HD
ATOM     10  O   GLY A   8      23.773  21.547  34.263  0.00  0.00    -0.273 OA
BRANCH   8  11
ATOM     11  CA  GLU A   9      25.620  20.933  36.281  0.00  0.00    +0.149 C 
BRANCH  11  12
ATOM     12  C   GLU A   9      25.395  19.437  36.455  0.00  0.00    +0.241 C 
ATOM     13  O   GLU A   9      24.477  19.018  37.156  0.00  0.00    -0.273 OA
ATOM     14  N   VAL A  10      26.254  18.643  35.824  0.00  0.00    -0.297 N 
ATOM     15  H   VAL A  10      27.005  19.072  35.246  0.00  0.00    +0.150 HD
BRANCH  14  16
ATOM     16  CA  VAL A  10      26.179  17.202  35.915  0.00  0.00    +0.149 C 
BRANCH  16  17
ATOM     17  C   VAL A  10      27.397  16.673  36.667  0.00  0.00    +0.241 C 
ATOM     18  N   ILE A  11      27.143  15.879  37.706  0.00  0.00    -0.297 N 
ATOM     19  H   ILE A  11      26.150  15.675  37.936  0.00  0.00    +0.150 HD
ATOM     20  O   VAL A  10      28.531  16.981  36.315  0.00  0.00    -0.273 OA
BRANCH  18  21
ATOM     21  CA  ILE A  11      28.188  15.275  38.546  0.00  0.00    +0.149 C 
BRANCH  21  22
ATOM     22  C   ILE A  11      28.229  13.760  38.334  0.00  0.00    +0.241 C 
ATOM     23  O   ILE A  11      27.176  13.135  38.286  0.00  0.00    -0.273 OA
ATOM     24  N   LEU A  12      29.415  13.159  38.213  0.00  0.00    -0.298 N 
ATOM     25  H   LEU A  12      30.273  13.732  38.086  0.00  0.00    +0.150 HD
BRANCH  24  26
ATOM     26  CA  LEU A  12      29.517  11.692  38.258  0.00  0.00    +0.137 C 
BRANCH  26  27
ATOM     27  C   LEU A  12      29.416  11.292  39.716  0.00  0.00    +0.227 C 
ATOM     28  O   LEU A  12      30.191  11.785  40.545  0.00  0.00    -0.286 OA
ENDBRANCH  26  27
BRANCH  26  29
ATOM     29  CB  LEU A  12      30.834  11.172  37.683  0.00  0.00    +0.028 C 
BRANCH  29  30
ATOM     30  CG  LEU A  12      31.082   9.661  37.825  0.00  0.00    +0.002 C 
ATOM     31  CD2 LEU A  12      32.555   9.336  37.654  0.00  0.00    +0.000 C 
ATOM     32  CD1 LEU A  12      30.248   8.871  36.820  0.00  0.00    +0.000 C 
ENDBRANCH  29  30
ENDBRANCH  26  29
ENDBRANCH  24  26
ENDBRANCH  21  22
BRANCH  21  33
ATOM     33  CB  ILE A  11      27.868  15.521  40.039  0.00  0.00    +0.027 C 
ATOM     34  CG2 ILE A  11      28.966  14.958  40.936  0.00  0.00    +0.002 C 
BRANCH  33  35
ATOM     35  CG1 ILE A  11      27.626  17.013  40.309  0.00  0.00    +0.002 C 
ATOM     36  CD1 ILE A  11      28.850  17.871  40.154  0.00  0.00    +0.000 C 
ENDBRANCH  33  35
ENDBRANCH  21  33
ENDBRANCH  18  21
ENDBRANCH  16  17
BRANCH  16  37
ATOM     37  CB  VAL A  10      26.095  16.577  34.514  0.00  0.00    +0.027 C 
ATOM     38  CG2 VAL A  10      25.724  15.114  34.621  0.00  0.00    +0.002 C 
ATOM     39  CG1 VAL A  10      25.063  17.321  33.687  0.00  0.00    +0.002 C 
ENDBRANCH  16  37
ENDBRANCH  14  16
ENDBRANCH  11  12
BRANCH  11  40
ATOM     40  CB  GLU A   9      26.659  21.428  37.293  0.00  0.00    +0.041 C 
BRANCH  40  41
ATOM     41  CG  GLU A   9      27.252  22.784  36.927  0.00  0.00    +0.116 C 
BRANCH  41  42
ATOM     42  CD  GLU A   9      27.791  23.548  38.125  0.00  0.00    +0.365 C 
ATOM     43  OE2 GLU A   9      28.026  22.933  39.194  0.00  0.00    -0.246 OA
ATOM     44  OE1 GLU A   9      27.976  24.775  37.994  0.00  0.00    -0.246 OA
ENDBRANCH  41  42
ENDBRANCH  40  41
ENDBRANCH  11  40
ENDBRANCH   8  11
ENDBRANCH   6   7
ENDBRANCH   4   6
ENDBRANCH   1   2
BRANCH   1  46
ATOM     45  C   SER A   6      20.418  22.495  31.649  0.00  0.00    +0.243 C 
ATOM     46  N   PHE A   7      20.014  23.602  32.281  0.00  0.00    -0.297 N 
ATOM     47  H   PHE A   7      20.216  24.512  31.819  0.00  0.00    +0.150 HD
ATOM     48  O   SER A   6      20.331  21.352  32.111  0.00  0.00    -0.273 OA
BRANCH  45  49
ATOM     49  CA  SER A   6      21.054  22.716  30.277  0.00  0.00    +0.178 C 
BRANCH  49  52
ATOM     50  C   GLY A   5      23.300  21.985  30.863  0.00  0.00    +0.243 C 
ATOM     51  O   GLY A   5      23.474  22.932  31.637  0.00  0.00    -0.273 OA
ATOM     52  N   SER A   6      22.198  21.827  30.137  0.00  0.00    -0.295 N 
ATOM     53  H   SER A   6      22.152  21.047  29.450  0.00  0.00    +0.150 HD
BRANCH  50  54
ATOM     54  CA  GLY A   5      24.364  20.925  30.695  0.00  0.00    +0.176 C 
BRANCH  54  56
ATOM     55  C   LYS A   4      26.679  21.419  31.266  0.00  0.00    +0.241 C 
ATOM     56  N   GLY A   5      25.431  21.178  31.645  0.00  0.00    -0.295 N 
ATOM     57  H   GLY A   5      25.209  21.170  32.661  0.00  0.00    +0.150 HD
ATOM     58  O   LYS A   4      27.074  21.279  30.107  0.00  0.00    -0.273 OA
BRANCH  55  59
ATOM     59  CA  LYS A   4      27.633  21.848  32.369  0.00  0.00    +0.149 C 
BRANCH  59  62
ATOM     60  C   GLY A   3      29.059  20.052  33.207  0.00  0.00    +0.243 C 
ATOM     61  O   GLY A   3      28.302  19.778  34.143  0.00  0.00    -0.273 OA
ATOM     62  N   LYS A   4      28.797  20.984  32.301  0.00  0.00    -0.297 N 
ATOM     63  H   LYS A   4      29.456  21.101  31.505  0.00  0.00    +0.150 HD
BRANCH  60  64
ATOM     64  CA  GLY A   3      30.377  19.331  33.013  0.00  0.00    +0.176 C 
BRANCH  64  66
ATOM     65  C   LEU A   2      30.905  16.960  33.198  0.00  0.00    +0.241 C 
ATOM     66  N   GLY A   3      30.451  18.080  33.754  0.00  0.00    -0.295 N 
ATOM     67  H   GLY A   3      30.140  18.061  34.746  0.00  0.00    +0.150 HD
ATOM     68  O   LEU A   2      31.191  16.874  32.005  0.00  0.00    -0.273 OA
BRANCH  65  69
ATOM     69  CA  LEU A   2      31.043  15.751  34.115  0.00  0.00    +0.149 C 
BRANCH  69  72
ATOM     70  C   VAL A   1      32.308  16.223  36.154  0.00  0.00    +0.238 C 
ATOM     71  O   VAL A   1      33.358  15.823  35.658  0.00  0.00    -0.274 OA
ATOM     72  N   LEU A   2      31.143  16.178  35.516  0.00  0.00    -0.297 N 
ATOM     73  H   LEU A   2      30.278  16.453  36.024  0.00  0.00    +0.150 HD
BRANCH  70  74
ATOM     74  CA  VAL A   1      32.290  16.776  37.571  0.00  0.00    +0.145 C 
BRANCH  74  75
ATOM     75  CB  VAL A   1      32.707  18.262  37.529  0.00  0.00    +0.025 C 
ATOM     76  CG2 VAL A   1      32.819  18.824  38.942  0.00  0.00    +0.002 C 
ATOM     77  CG1 VAL A   1      31.720  19.075  36.694  0.00  0.00    +0.002 C 
ENDBRANCH  74  75
BRANCH  74  78
ATOM     78  N   VAL A   1      33.193  15.982  38.410  0.00  0.00    -0.238 NA
ATOM     79  H   VAL A   1      34.190  16.267  38.488  0.00  0.00    +0.142 HD
ENDBRANCH  74  78
ENDBRANCH  70  74
ENDBRANCH  69  72
BRANCH  69  80
ATOM     80  CB  LEU A   2      29.861  14.799  33.922  0.00  0.00    +0.029 C 
BRANCH  80  81
ATOM     81  CG  LEU A   2      29.929  13.465  34.674  0.00  0.00    +0.002 C 
ATOM     82  CD2 LEU A   2      28.670  12.653  34.428  0.00  0.00    +0.000 C 
ATOM     83  CD1 LEU A   2      31.157  12.650  34.296  0.00  0.00    +0.000 C 
ENDBRANCH  80  81
ENDBRANCH  69  80
ENDBRANCH  65  69
ENDBRANCH  64  66
ENDBRANCH  60  64
ENDBRANCH  59  62
BRANCH  59  84
ATOM     84  CB  LYS A   4      28.062  23.317  32.215  0.00  0.00    +0.029 C 
BRANCH  84  85
ATOM     85  CG  LYS A   4      26.953  24.329  31.952  0.00  0.00    +0.000 C 
BRANCH  85  86
ATOM     86  CD  LYS A   4      25.978  24.467  33.110  0.00  0.00    -0.024 C 
BRANCH  86  87
ATOM     87  CE  LYS A   4      24.887  25.481  32.774  0.00  0.00    -0.086 C 
BRANCH  87  88
ATOM     88  NZ  LYS A   4      23.726  25.418  33.707  0.00  0.00    +0.380 N 
ATOM     89  HZ1 LYS A   4      24.051  25.612  34.676  0.00  0.00    -0.089 HD
ATOM     90  HZ2 LYS A   4      23.301  24.470  33.666  0.00  0.00    -0.089 HD
ATOM     91  HZ3 LYS A   4      23.020  26.129  33.428  0.00  0.00    -0.089 HD
ENDBRANCH  87  88
ENDBRANCH  86  87
ENDBRANCH  85  86
ENDBRANCH  84  85
ENDBRANCH  59  84
ENDBRANCH  55  59
ENDBRANCH  54  56
ENDBRANCH  50  54
ENDBRANCH  49  52
BRANCH  49  92
ATOM     92  CB  SER A   6      20.016  22.441  29.185  0.00  0.00    +0.166 C 
BRANCH  92  93
ATOM     93  OG  SER A   6      20.558  22.615  27.889  0.00  0.00    -0.380 OA
ATOM     94  H   SER A   6      19.859  22.429  27.213  0.00  0.00    +0.211 HD
ENDBRANCH  92  93
ENDBRANCH  49  92
ENDBRANCH  45  49
ENDBRANCH   1  46
BRANCH   1  95
ATOM     95  CB  PHE A   7      18.063  22.735  33.583  0.00  0.00    +0.055 C 
BRANCH  95  96
ATOM     96  CG  PHE A   7      17.137  22.993  32.429  0.00  0.00    -0.020 A 
ATOM     97  CD2 PHE A   7      16.479  24.211  32.314  0.00  0.00    -0.004 A 
ATOM     98  CE2 PHE A   7      15.647  24.472  31.237  0.00  0.00    -0.000 A 
ATOM     99  CZ  PHE A   7      15.467  23.516  30.259  0.00  0.00    -0.000 A 
ATOM    100  CE1 PHE A   7      16.128  22.302  30.353  0.00  0.00    -0.000 A 
ATOM    101  CD1 PHE A   7      16.955  22.044  31.434  0.00  0.00    -0.004 A 
ENDBRANCH  95  96
ENDBRANCH   1  95
TORSDOF 44
REMARK  Name = ../refined-set-2016/3v5p/3v5p_pocket.pdb
REMARK  215 active torsions:
REMARK  status: ('A' for Active; 'I' for Inactive)
REMARK    1  A    between atoms: _1  and  _3
REMARK    2  A    between atoms: _3  and  _4
REMARK    3  A    between atoms: _3  and  _6
REMARK    4  A    between atoms: _9  and  _11
REMARK    5  A    between atoms: _11  and  _12
REMARK    6  A    between atoms: _11  and  _14
REMARK    7  A    between atoms: _14  and  _15
REMARK    8  A    between atoms: _18  and  _20
REMARK    9  A    between atoms: _20  and  _21
REMARK   10  A    between atoms: _23  and  _25
REMARK   11  A    between atoms: _25  and  _26
REMARK   12  A    between atoms: _25  and  _28
REMARK   13  A    between atoms: _28  and  _29
REMARK   14  A    between atoms: _29  and  _30
REMARK   15  A    between atoms: _30  and  _31
REMARK   16  A    between atoms: _31  and  _32
REMARK   17  A    between atoms: _36  and  _38
REMARK   18  A    between atoms: _38  and  _39
REMARK   19  A    between atoms: _41  and  _43
REMARK   20  A    between atoms: _43  and  _44
REMARK   21  A    between atoms: _43  and  _46
REMARK   22  A    between atoms: _46  and  _47
REMARK   23  A    between atoms: _49  and  _51
REMARK   24  A    between atoms: _51  and  _52
REMARK   25  A    between atoms: _51  and  _54
REMARK   26  A    between atoms: _54  and  _55
REMARK   27  A    between atoms: _61  and  _63
REMARK   28  A    between atoms: _63  and  _64
REMARK   29  A    between atoms: _66  and  _68
REMARK   30  A    between atoms: _68  and  _69
REMARK   31  A    between atoms: _68  and  _71
REMARK   32  A    between atoms: _71  and  _72
REMARK   33  A    between atoms: _72  and  _73
REMARK   34  A    between atoms: _76  and  _78
REMARK   35  A    between atoms: _78  and  _79
REMARK   36  A    between atoms: _78  and  _81
REMARK   37  A    between atoms: _84  and  _86
REMARK   38  A    between atoms: _86  and  _87
REMARK   39  A    between atoms: _86  and  _89
REMARK   40  A    between atoms: _89  and  _90
REMARK   41  A    between atoms: _93  and  _95
REMARK   42  A    between atoms: _95  and  _96
REMARK   43  A    between atoms: _95  and  _98
REMARK   44  A    between atoms: _98  and  _99
REMARK   45  A    between atoms: _102  and  _104
REMARK   46  A    between atoms: _104  and  _105
REMARK   47  A    between atoms: _104  and  _107
REMARK   48  A    between atoms: _109  and  _111
REMARK   49  A    between atoms: _111  and  _112
REMARK   50  A    between atoms: _115  and  _117
REMARK   51  A    between atoms: _117  and  _118
REMARK   52  A    between atoms: _117  and  _120
REMARK   53  A    between atoms: _123  and  _125
REMARK   54  A    between atoms: _125  and  _126
REMARK   55  A    between atoms: _125  and  _128
REMARK   56  A    between atoms: _128  and  _129
REMARK   57  A    between atoms: _129  and  _130
REMARK   58  A    between atoms: _130  and  _131
REMARK   59  A    between atoms: _131  and  _132
REMARK   60  A    between atoms: _136  and  _138
REMARK   61  A    between atoms: _138  and  _139
REMARK   62  A    between atoms: _138  and  _141
REMARK   63  A    between atoms: _144  and  _146
REMARK   64  A    between atoms: _146  and  _147
REMARK   65  A    between atoms: _146  and  _149
REMARK   66  A    between atoms: _149  and  _150
REMARK   67  A    between atoms: _153  and  _155
REMARK   68  A    between atoms: _155  and  _156
REMARK   69  A    between atoms: _155  and  _158
REMARK   70  A    between atoms: _158  and  _159
REMARK   71  A    between atoms: _162  and  _164
REMARK   72  A    between atoms: _164  and  _165
REMARK   73  A    between atoms: _164  and  _167
REMARK   74  A    between atoms: _167  and  _168
REMARK   75  A    between atoms: _168  and  _169
REMARK   76  A    between atoms: _171  and  _173
REMARK   77  A    between atoms: _173  and  _174
REMARK   78  A    between atoms: _173  and  _176
REMARK   79  A    between atoms: _176  and  _177
REMARK   80  A    between atoms: _177  and  _178
REMARK   81  A    between atoms: _178  and  _179
REMARK   82  A    between atoms: _179  and  _180
REMARK   83  A    between atoms: _184  and  _186
REMARK   84  A    between atoms: _186  and  _187
REMARK   85  A    between atoms: _186  and  _189
REMARK   86  A    between atoms: _189  and  _190
REMARK   87  A    between atoms: _193  and  _195
REMARK   88  A    between atoms: _195  and  _196
REMARK   89  A    between atoms: _195  and  _198
REMARK   90  A    between atoms: _198  and  _199
REMARK   91  A    between atoms: _204  and  _205
REMARK   92  A    between atoms: _207  and  _209
REMARK   93  A    between atoms: _209  and  _210
REMARK   94  A    between atoms: _209  and  _212
REMARK   95  A    between atoms: _212  and  _213
REMARK   96  A    between atoms: _213  and  _214
REMARK   97  A    between atoms: _217  and  _219
REMARK   98  A    between atoms: _219  and  _220
REMARK   99  A    between atoms: _219  and  _222
REMARK  100  A    between atoms: _222  and  _223
REMARK  101  A    between atoms: _228  and  _229
REMARK  102  A    between atoms: _231  and  _233
REMARK  103  A    between atoms: _233  and  _234
REMARK  104  A    between atoms: _233  and  _236
REMARK  105  A    between atoms: _236  and  _237
REMARK  106  A    between atoms: _240  and  _242
REMARK  107  A    between atoms: _242  and  _243
REMARK  108  A    between atoms: _242  and  _245
REMARK  109  A    between atoms: _248  and  _250
REMARK  110  A    between atoms: _250  and  _251
REMARK  111  A    between atoms: _253  and  _255
REMARK  112  A    between atoms: _255  and  _256
REMARK  113  A    between atoms: _255  and  _258
REMARK  114  A    between atoms: _258  and  _259
REMARK  115  A    between atoms: _259  and  _260
REMARK  116  A    between atoms: _263  and  _265
REMARK  117  A    between atoms: _265  and  _266
REMARK  118  A    between atoms: _265  and  _268
REMARK  119  A    between atoms: _271  and  _273
REMARK  120  A    between atoms: _273  and  _274
REMARK  121  A    between atoms: _273  and  _276
REMARK  122  A    between atoms: _276  and  _277
REMARK  123  A    between atoms: _282  and  _283
REMARK  124  A    between atoms: _285  and  _287
REMARK  125  A    between atoms: _287  and  _288
REMARK  126  A    between atoms: _287  and  _290
REMARK  127  A    between atoms: _290  and  _291
REMARK  128  A    between atoms: _294  and  _296
REMARK  129  A    between atoms: _296  and  _297
REMARK  130  A    between atoms: _299  and  _301
REMARK  131  A    between atoms: _301  and  _302
REMARK  132  A    between atoms: _304  and  _306
REMARK  133  A    between atoms: _306  and  _307
REMARK  134  A    between atoms: _306  and  _309
REMARK  135  A    between atoms: _309  and  _310
REMARK  136  A    between atoms: _310  and  _311
REMARK  137  A    between atoms: _314  and  _316
REMARK  138  A    between atoms: _316  and  _317
REMARK  139  A    between atoms: _316  and  _319
REMARK  140  A    between atoms: _319  and  _320
REMARK  141  A    between atoms: _323  and  _325
REMARK  142  A    between atoms: _325  and  _326
REMARK  143  A    between atoms: _325  and  _328
REMARK  144  A    between atoms: _328  and  _329
REMARK  145  A    between atoms: _333  and  _334
REMARK  146  A    between atoms: _339  and  _341
REMARK  147  A    between atoms: _341  and  _342
REMARK  148  A    between atoms: _341  and  _344
REMARK  149  A    between atoms: _344  and  _345
REMARK  150  A    between atoms: _345  and  _346
REMARK  151  A    between atoms: _349  and  _351
REMARK  152  A    between atoms: _351  and  _352
REMARK  153  A    between atoms: _351  and  _354
REMARK  154  A    between atoms: _354  and  _355
REMARK  155  A    between atoms: _360  and  _362
REMARK  156  A    between atoms: _362  and  _363
REMARK  157  A    between atoms: _362  and  _365
REMARK  158  A    between atoms: _365  and  _366
REMARK  159  A    between atoms: _369  and  _371
REMARK  160  A    between atoms: _371  and  _372
REMARK  161  A    between atoms: _371  and  _374
REMARK  162  A    between atoms: _374  and  _375
REMARK  163  A    between atoms: _378  and  _380
REMARK  164  A    between atoms: _380  and  _381
REMARK  165  A    between atoms: _380  and  _383
REMARK  166  A    between atoms: _383  and  _384
REMARK  167  A    between atoms: _387  and  _389
REMARK  168  A    between atoms: _389  and  _390
REMARK  169  A    between atoms: _389  and  _392
REMARK  170  A    between atoms: _392  and  _393
REMARK  171  A    between atoms: _393  and  _394
REMARK  172  A    between atoms: _397  and  _399
REMARK  173  A    between atoms: _399  and  _400
REMARK  174  A    between atoms: _399  and  _402
REMARK  175  A    between atoms: _402  and  _403
REMARK  176  A    between atoms: _403  and  _404
REMARK  177  A    between atoms: _404  and  _405
REMARK  178  A    between atoms: _414  and  _416
REMARK  179  A    between atoms: _416  and  _417
REMARK  180  A    between atoms: _416  and  _419
REMARK  181  A    between atoms: _419  and  _420
REMARK  182  A    between atoms: _423  and  _425
REMARK  183  A    between atoms: _425  and  _426
REMARK  184  A    between atoms: _425  and  _428
REMARK  185  A    between atoms: _428  and  _429
REMARK  186  A    between atoms: _432  and  _434
REMARK  187  A    between atoms: _434  and  _435
REMARK  188  A    between atoms: _434  and  _437
REMARK  189  A    between atoms: _437  and  _438
REMARK  190  A    between atoms: _441  and  _443
REMARK  191  A    between atoms: _443  and  _444
REMARK  192  A    between atoms: _443  and  _446
REMARK  193  A    between atoms: _446  and  _447
REMARK  194  A    between atoms: _453  and  _455
REMARK  195  A    between atoms: _455  and  _456
REMARK  196  A    between atoms: _458  and  _460
REMARK  197  A    between atoms: _460  and  _461
REMARK  198  A    between atoms: _460  and  _463
REMARK  199  A    between atoms: _463  and  _464
REMARK  200  A    between atoms: _467  and  _469
REMARK  201  A    between atoms: _469  and  _470
REMARK  202  A    between atoms: _469  and  _472
REMARK  203  A    between atoms: _472  and  _473
REMARK  204  A    between atoms: _479  and  _481
REMARK  205  A    between atoms: _481  and  _482
REMARK  206  A    between atoms: _481  and  _484
REMARK  207  A    between atoms: _484  and  _485
REMARK  208  A    between atoms: _485  and  _486
REMARK  209  A    between atoms: _486  and  _487
REMARK  210  A    between atoms: _487  and  _488
REMARK  211  A    between atoms: _492  and  _494
REMARK  212  A    between atoms: _494  and  _495
REMARK  213  A    between atoms: _494  and  _497
REMARK  214  A    between atoms: _497  and  _498
REMARK  215  A    between atoms: _498  and  _499
REMARK                            x       y       z     vdW  Elec       q    Type
REMARK                         _______ _______ _______ _____ _____    ______ ____
ROOT
ATOM      1  CA  LYS A   4      22.060  16.507  36.964  0.00  0.00    +0.149 C 
ENDROOT
BRANCH   1   4
ATOM      2  C   VAL A   3      23.401  14.715  37.923  0.00  0.00    +0.241 C 
ATOM      3  O   VAL A   3      24.367  15.465  38.114  0.00  0.00    -0.273 OA
ATOM      4  N   LYS A   4      22.287  15.108  37.305  0.00  0.00    -0.297 N 
ATOM      5  H   LYS A   4      21.564  14.401  37.061  0.00  0.00    +0.150 HD
BRANCH   2   6
ATOM      6  CA  VAL A   3      23.444  13.265  38.397  0.00  0.00    +0.149 C 
BRANCH   6   8
ATOM      7  C   ALA A   2      24.189  11.558  36.829  0.00  0.00    +0.241 C 
ATOM      8  N   VAL A   3      24.480  12.557  37.659  0.00  0.00    -0.297 N 
ATOM      9  H   VAL A   3      25.473  12.839  37.784  0.00  0.00    +0.150 HD
ATOM     10  O   ALA A   2      23.035  11.172  36.629  0.00  0.00    -0.273 OA
BRANCH   7  11
ATOM     11  CA  ALA A   2      25.363  10.871  36.133  0.00  0.00    +0.149 C 
ATOM     12  CB  ALA A   2      25.333  11.140  34.628  0.00  0.00    +0.031 C 
BRANCH  11  15
ATOM     13  C   CYS A   1      25.887   8.859  37.404  0.00  0.00    +0.239 C 
ATOM     14  O   CYS A   1      26.763   9.428  38.075  0.00  0.00    -0.274 OA
ATOM     15  N   ALA A   2      25.234   9.445  36.407  0.00  0.00    -0.297 N 
ATOM     16  H   ALA A   2      24.612   8.870  35.804  0.00  0.00    +0.150 HD
BRANCH  13  17
ATOM     17  CA  CYS A   1      25.525   7.403  37.663  0.00  0.00    +0.156 C 
BRANCH  17  18
ATOM     18  N   CYS A   1      26.628   6.740  38.329  0.00  0.00    -0.237 NA
ATOM     19  H   CYS A   1      27.258   7.297  38.941  0.00  0.00    +0.142 HD
ENDBRANCH  17  18
BRANCH  17  20
ATOM     20  CB  CYS A   1      24.269   7.318  38.526  0.00  0.00    +0.095 C 
ATOM     21  SG  CYS A   1      24.471   8.073  40.149  0.00  0.00    -0.080 S 
ENDBRANCH  17  20
ENDBRANCH  13  17
ENDBRANCH  11  15
ENDBRANCH   7  11
ENDBRANCH   6   8
BRANCH   6  22
ATOM     22  CB  VAL A   3      23.682  13.212  39.929  0.00  0.00    +0.027 C 
ATOM     23  CG2 VAL A   3      22.688  14.102  40.655  0.00  0.00    +0.002 C 
ATOM     24  CG1 VAL A   3      23.560  11.783  40.448  0.00  0.00    +0.002 C 
ENDBRANCH   6  22
ENDBRANCH   2   6
ENDBRANCH   1   4
BRANCH   1  25
ATOM     25  C   LYS A   4      21.363  17.194  38.130  0.00  0.00    +0.241 C 
ATOM     26  O   LYS A   4      20.306  16.749  38.588  0.00  0.00    -0.273 OA
ATOM     27  N   VAL A   5      21.960  18.287  38.587  0.00  0.00    -0.297 N 
ATOM     28  H   VAL A   5      22.797  18.639  38.081  0.00  0.00    +0.150 HD
BRANCH  27  29
ATOM     29  CA  VAL A   5      21.503  19.020  39.762  0.00  0.00    +0.149 C 
BRANCH  29  30
ATOM     30  C   VAL A   5      20.939  20.374  39.314  0.00  0.00    +0.241 C 
ATOM     31  N   ILE A   6      19.636  20.556  39.493  0.00  0.00    -0.298 N 
ATOM     32  H   ILE A   6      19.084  19.812  39.966  0.00  0.00    +0.150 HD
ATOM     33  O   VAL A   5      21.660  21.210  38.770  0.00  0.00    -0.273 OA
BRANCH  31  34
ATOM     34  CA  ILE A   6      18.956  21.765  39.048  0.00  0.00    +0.137 C 
BRANCH  34  35
ATOM     35  CB  ILE A   6      17.626  21.460  38.327  0.00  0.00    +0.026 C 
ATOM     36  CG2 ILE A   6      16.910  22.752  37.959  0.00  0.00    +0.002 C 
BRANCH  35  37
ATOM     37  CG1 ILE A   6      17.871  20.636  37.060  0.00  0.00    +0.002 C 
ATOM     38  CD1 ILE A   6      16.621  20.055  36.431  0.00  0.00    +0.000 C 
ENDBRANCH  35  37
ENDBRANCH  34  35
BRANCH  34  39
ATOM     39  C   ILE A   6      18.702  22.632  40.266  0.00  0.00    +0.227 C 
ATOM     40  O   ILE A   6      18.015  22.221  41.202  0.00  0.00    -0.286 OA
ENDBRANCH  34  39
ENDBRANCH  31  34
ENDBRANCH  29  30
BRANCH  29  41
ATOM     41  CB  VAL A   5      22.673  19.223  40.748  0.00  0.00    +0.027 C 
ATOM     42  CG2 VAL A   5      22.221  20.002  41.979  0.00  0.00    +0.002 C 
ATOM     43  CG1 VAL A   5      23.287  17.874  41.128  0.00  0.00    +0.002 C 
ENDBRANCH  29  41
ENDBRANCH  27  29
ENDBRANCH   1  25
BRANCH   1  44
ATOM     44  CB  LYS A   4      21.228  16.650  35.698  0.00  0.00    +0.029 C 
BRANCH  44  45
ATOM     45  CG  LYS A   4      20.880  18.099  35.357  0.00  0.00    +0.000 C 
BRANCH  45  46
ATOM     46  CD  LYS A   4      20.401  18.258  33.916  0.00  0.00    -0.024 C 
BRANCH  46  47
ATOM     47  CE  LYS A   4      21.540  18.221  32.906  0.00  0.00    -0.086 C 
BRANCH  47  48
ATOM     48  NZ  LYS A   4      21.075  18.618  31.550  0.00  0.00    +0.380 N 
ATOM     49  HZ1 LYS A   4      20.695  19.585  31.585  0.00  0.00    -0.089 HD
ATOM     50  HZ2 LYS A   4      20.331  17.963  31.234  0.00  0.00    -0.089 HD
ATOM     51  HZ3 LYS A   4      21.875  18.582  30.886  0.00  0.00    -0.089 HD
ENDBRANCH  47  48
ENDBRANCH  46  47
ENDBRANCH  45  46
ENDBRANCH  44  45
ENDBRANCH   1  44
TORSDOF 22
REMARK  Name = ../refined-set-2016/3v5p/3v5p_pocket.pdb
REMARK  215 active torsions:
REMARK  status: ('A' for Active; 'I' for Inactive)
REMARK    1  A    between atoms: _1  and  _3
REMARK    2  A    between atoms: _3  and  _4
REMARK    3  A    between atoms: _3  and  _6
REMARK    4  A    between atoms: _9  and  _11
REMARK    5  A    between atoms: _11  and  _12
REMARK    6  A    between atoms: _11  and  _14
REMARK    7  A    between atoms: _14  and  _15
REMARK    8  A    between atoms: _18  and  _20
REMARK    9  A    between atoms: _20  and  _21
REMARK   10  A    between atoms: _23  and  _25
REMARK   11  A    between atoms: _25  and  _26
REMARK   12  A    between atoms: _25  and  _28
REMARK   13  A    between atoms: _28  and  _29
REMARK   14  A    between atoms: _29  and  _30
REMARK   15  A    between atoms: _30  and  _31
REMARK   16  A    between atoms: _31  and  _32
REMARK   17  A    between atoms: _36  and  _38
REMARK   18  A    between atoms: _38  and  _39
REMARK   19  A    between atoms: _41  and  _43
REMARK   20  A    between atoms: _43  and  _44
REMARK   21  A    between atoms: _43  and  _46
REMARK   22  A    between atoms: _46  and  _47
REMARK   23  A    between atoms: _49  and  _51
REMARK   24  A    between atoms: _51  and  _52
REMARK   25  A    between atoms: _51  and  _54
REMARK   26  A    between atoms: _54  and  _55
REMARK   27  A    between atoms: _61  and  _63
REMARK   28  A    between atoms: _63  and  _64
REMARK   29  A    between atoms: _66  and  _68
REMARK   30  A    between atoms: _68  and  _69
REMARK   31  A    between atoms: _68  and  _71
REMARK   32  A    between atoms: _71  and  _72
REMARK   33  A    between atoms: _72  and  _73
REMARK   34  A    between atoms: _76  and  _78
REMARK   35  A    between atoms: _78  and  _79
REMARK   36  A    between atoms: _78  and  _81
REMARK   37  A    between atoms: _84  and  _86
REMARK   38  A    between atoms: _86  and  _87
REMARK   39  A    between atoms: _86  and  _89
REMARK   40  A    between atoms: _89  and  _90
REMARK   41  A    between atoms: _93  and  _95
REMARK   42  A    between atoms: _95  and  _96
REMARK   43  A    between atoms: _95  and  _98
REMARK   44  A    between atoms: _98  and  _99
REMARK   45  A    between atoms: _102  and  _104
REMARK   46  A    between atoms: _104  and  _105
REMARK   47  A    between atoms: _104  and  _107
REMARK   48  A    between atoms: _109  and  _111
REMARK   49  A    between atoms: _111  and  _112
REMARK   50  A    between atoms: _115  and  _117
REMARK   51  A    between atoms: _117  and  _118
REMARK   52  A    between atoms: _117  and  _120
REMARK   53  A    between atoms: _123  and  _125
REMARK   54  A    between atoms: _125  and  _126
REMARK   55  A    between atoms: _125  and  _128
REMARK   56  A    between atoms: _128  and  _129
REMARK   57  A    between atoms: _129  and  _130
REMARK   58  A    between atoms: _130  and  _131
REMARK   59  A    between atoms: _131  and  _132
REMARK   60  A    between atoms: _136  and  _138
REMARK   61  A    between atoms: _138  and  _139
REMARK   62  A    between atoms: _138  and  _141
REMARK   63  A    between atoms: _144  and  _146
REMARK   64  A    between atoms: _146  and  _147
REMARK   65  A    between atoms: _146  and  _149
REMARK   66  A    between atoms: _149  and  _150
REMARK   67  A    between atoms: _153  and  _155
REMARK   68  A    between atoms: _155  and  _156
REMARK   69  A    between atoms: _155  and  _158
REMARK   70  A    between atoms: _158  and  _159
REMARK   71  A    between atoms: _162  and  _164
REMARK   72  A    between atoms: _164  and  _165
REMARK   73  A    between atoms: _164  and  _167
REMARK   74  A    between atoms: _167  and  _168
REMARK   75  A    between atoms: _168  and  _169
REMARK   76  A    between atoms: _171  and  _173
REMARK   77  A    between atoms: _173  and  _174
REMARK   78  A    between atoms: _173  and  _176
REMARK   79  A    between atoms: _176  and  _177
REMARK   80  A    between atoms: _177  and  _178
REMARK   81  A    between atoms: _178  and  _179
REMARK   82  A    between atoms: _179  and  _180
REMARK   83  A    between atoms: _184  and  _186
REMARK   84  A    between atoms: _186  and  _187
REMARK   85  A    between atoms: _186  and  _189
REMARK   86  A    between atoms: _189  and  _190
REMARK   87  A    between atoms: _193  and  _195
REMARK   88  A    between atoms: _195  and  _196
REMARK   89  A    between atoms: _195  and  _198
REMARK   90  A    between atoms: _198  and  _199
REMARK   91  A    between atoms: _204  and  _205
REMARK   92  A    between atoms: _207  and  _209
REMARK   93  A    between atoms: _209  and  _210
REMARK   94  A    between atoms: _209  and  _212
REMARK   95  A    between atoms: _212  and  _213
REMARK   96  A    between atoms: _213  and  _214
REMARK   97  A    between atoms: _217  and  _219
REMARK   98  A    between atoms: _219  and  _220
REMARK   99  A    between atoms: _219  and  _222
REMARK  100  A    between atoms: _222  and  _223
REMARK  101  A    between atoms: _228  and  _229
REMARK  102  A    between atoms: _231  and  _233
REMARK  103  A    between atoms: _233  and  _234
REMARK  104  A    between atoms: _233  and  _236
REMARK  105  A    between atoms: _236  and  _237
REMARK  106  A    between atoms: _240  and  _242
REMARK  107  A    between atoms: _242  and  _243
REMARK  108  A    between atoms: _242  and  _245
REMARK  109  A    between atoms: _248  and  _250
REMARK  110  A    between atoms: _250  and  _251
REMARK  111  A    between atoms: _253  and  _255
REMARK  112  A    between atoms: _255  and  _256
REMARK  113  A    between atoms: _255  and  _258
REMARK  114  A    between atoms: _258  and  _259
REMARK  115  A    between atoms: _259  and  _260
REMARK  116  A    between atoms: _263  and  _265
REMARK  117  A    between atoms: _265  and  _266
REMARK  118  A    between atoms: _265  and  _268
REMARK  119  A    between atoms: _271  and  _273
REMARK  120  A    between atoms: _273  and  _274
REMARK  121  A    between atoms: _273  and  _276
REMARK  122  A    between atoms: _276  and  _277
REMARK  123  A    between atoms: _282  and  _283
REMARK  124  A    between atoms: _285  and  _287
REMARK  125  A    between atoms: _287  and  _288
REMARK  126  A    between atoms: _287  and  _290
REMARK  127  A    between atoms: _290  and  _291
REMARK  128  A    between atoms: _294  and  _296
REMARK  129  A    between atoms: _296  and  _297
REMARK  130  A    between atoms: _299  and  _301
REMARK  131  A    between atoms: _301  and  _302
REMARK  132  A    between atoms: _304  and  _306
REMARK  133  A    between atoms: _306  and  _307
REMARK  134  A    between atoms: _306  and  _309
REMARK  135  A    between atoms: _309  and  _310
REMARK  136  A    between atoms: _310  and  _311
REMARK  137  A    between atoms: _314  and  _316
REMARK  138  A    between atoms: _316  and  _317
REMARK  139  A    between atoms: _316  and  _319
REMARK  140  A    between atoms: _319  and  _320
REMARK  141  A    between atoms: _323  and  _325
REMARK  142  A    between atoms: _325  and  _326
REMARK  143  A    between atoms: _325  and  _328
REMARK  144  A    between atoms: _328  and  _329
REMARK  145  A    between atoms: _333  and  _334
REMARK  146  A    between atoms: _339  and  _341
REMARK  147  A    between atoms: _341  and  _342
REMARK  148  A    between atoms: _341  and  _344
REMARK  149  A    between atoms: _344  and  _345
REMARK  150  A    between atoms: _345  and  _346
REMARK  151  A    between atoms: _349  and  _351
REMARK  152  A    between atoms: _351  and  _352
REMARK  153  A    between atoms: _351  and  _354
REMARK  154  A    between atoms: _354  and  _355
REMARK  155  A    between atoms: _360  and  _362
REMARK  156  A    between atoms: _362  and  _363
REMARK  157  A    between atoms: _362  and  _365
REMARK  158  A    between atoms: _365  and  _366
REMARK  159  A    between atoms: _369  and  _371
REMARK  160  A    between atoms: _371  and  _372
REMARK  161  A    between atoms: _371  and  _374
REMARK  162  A    between atoms: _374  and  _375
REMARK  163  A    between atoms: _378  and  _380
REMARK  164  A    between atoms: _380  and  _381
REMARK  165  A    between atoms: _380  and  _383
REMARK  166  A    between atoms: _383  and  _384
REMARK  167  A    between atoms: _387  and  _389
REMARK  168  A    between atoms: _389  and  _390
REMARK  169  A    between atoms: _389  and  _392
REMARK  170  A    between atoms: _392  and  _393
REMARK  171  A    between atoms: _393  and  _394
REMARK  172  A    between atoms: _397  and  _399
REMARK  173  A    between atoms: _399  and  _400
REMARK  174  A    between atoms: _399  and  _402
REMARK  175  A    between atoms: _402  and  _403
REMARK  176  A    between atoms: _403  and  _404
REMARK  177  A    between atoms: _404  and  _405
REMARK  178  A    between atoms: _414  and  _416
REMARK  179  A    between atoms: _416  and  _417
REMARK  180  A    between atoms: _416  and  _419
REMARK  181  A    between atoms: _419  and  _420
REMARK  182  A    between atoms: _423  and  _425
REMARK  183  A    between atoms: _425  and  _426
REMARK  184  A    between atoms: _425  and  _428
REMARK  185  A    between atoms: _428  and  _429
REMARK  186  A    between atoms: _432  and  _434
REMARK  187  A    between atoms: _434  and  _435
REMARK  188  A    between atoms: _434  and  _437
REMARK  189  A    between atoms: _437  and  _438
REMARK  190  A    between atoms: _441  and  _443
REMARK  191  A    between atoms: _443  and  _444
REMARK  192  A    between atoms: _443  and  _446
REMARK  193  A    between atoms: _446  and  _447
REMARK  194  A    between atoms: _453  and  _455
REMARK  195  A    between atoms: _455  and  _456
REMARK  196  A    between atoms: _458  and  _460
REMARK  197  A    between atoms: _460  and  _461
REMARK  198  A    between atoms: _460  and  _463
REMARK  199  A    between atoms: _463  and  _464
REMARK  200  A    between atoms: _467  and  _469
REMARK  201  A    between atoms: _469  and  _470
REMARK  202  A    between atoms: _469  and  _472
REMARK  203  A    between atoms: _472  and  _473
REMARK  204  A    between atoms: _479  and  _481
REMARK  205  A    between atoms: _481  and  _482
REMARK  206  A    between atoms: _481  and  _484
REMARK  207  A    between atoms: _484  and  _485
REMARK  208  A    between atoms: _485  and  _486
REMARK  209  A    between atoms: _486  and  _487
REMARK  210  A    between atoms: _487  and  _488
REMARK  211  A    between atoms: _492  and  _494
REMARK  212  A    between atoms: _494  and  _495
REMARK  213  A    between atoms: _494  and  _497
REMARK  214  A    between atoms: _497  and  _498
REMARK  215  A    between atoms: _498  and  _499
REMARK                            x       y       z     vdW  Elec       q    Type
REMARK                         _______ _______ _______ _____ _____    ______ ____
ROOT
ATOM      1  CA  LEU A   1      10.393   8.824  32.215  0.00  0.00    +0.133 C 
ENDROOT
BRANCH   1   2
ATOM      2  N   LEU A   1       9.027   8.907  32.752  0.00  0.00    -0.239 NA
ATOM      3  H   LEU A   1       8.719   9.776  33.233  0.00  0.00    +0.142 HD
ENDBRANCH   1   2
BRANCH   1   4
ATOM      4  C   LEU A   1      11.209   7.663  32.803  0.00  0.00    +0.224 C 
ATOM      5  O   LEU A   1      11.954   7.011  32.080  0.00  0.00    -0.287 OA
ENDBRANCH   1   4
BRANCH   1   6
ATOM      6  CB  LEU A   1      11.136  10.152  32.410  0.00  0.00    +0.025 C 
BRANCH   6   7
ATOM      7  CG  LEU A   1      10.592  11.329  31.593  0.00  0.00    +0.002 C 
ATOM      8  CD2 LEU A   1      11.219  12.646  32.047  0.00  0.00    +0.000 C 
ATOM      9  CD1 LEU A   1      10.812  11.093  30.097  0.00  0.00    +0.000 C 
ENDBRANCH   6   7
ENDBRANCH   1   6
TORSDOF 4
REMARK  Name = ../refined-set-2016/3v5p/3v5p_pocket.pdb
REMARK  215 active torsions:
REMARK  status: ('A' for Active; 'I' for Inactive)
REMARK    1  A    between atoms: _1  and  _3
REMARK    2  A    between atoms: _3  and  _4
REMARK    3  A    between atoms: _3  and  _6
REMARK    4  A    between atoms: _9  and  _11
REMARK    5  A    between atoms: _11  and  _12
REMARK    6  A    between atoms: _11  and  _14
REMARK    7  A    between atoms: _14  and  _15
REMARK    8  A    between atoms: _18  and  _20
REMARK    9  A    between atoms: _20  and  _21
REMARK   10  A    between atoms: _23  and  _25
REMARK   11  A    between atoms: _25  and  _26
REMARK   12  A    between atoms: _25  and  _28
REMARK   13  A    between atoms: _28  and  _29
REMARK   14  A    between atoms: _29  and  _30
REMARK   15  A    between atoms: _30  and  _31
REMARK   16  A    between atoms: _31  and  _32
REMARK   17  A    between atoms: _36  and  _38
REMARK   18  A    between atoms: _38  and  _39
REMARK   19  A    between atoms: _41  and  _43
REMARK   20  A    between atoms: _43  and  _44
REMARK   21  A    between atoms: _43  and  _46
REMARK   22  A    between atoms: _46  and  _47
REMARK   23  A    between atoms: _49  and  _51
REMARK   24  A    between atoms: _51  and  _52
REMARK   25  A    between atoms: _51  and  _54
REMARK   26  A    between atoms: _54  and  _55
REMARK   27  A    between atoms: _61  and  _63
REMARK   28  A    between atoms: _63  and  _64
REMARK   29  A    between atoms: _66  and  _68
REMARK   30  A    between atoms: _68  and  _69
REMARK   31  A    between atoms: _68  and  _71
REMARK   32  A    between atoms: _71  and  _72
REMARK   33  A    between atoms: _72  and  _73
REMARK   34  A    between atoms: _76  and  _78
REMARK   35  A    between atoms: _78  and  _79
REMARK   36  A    between atoms: _78  and  _81
REMARK   37  A    between atoms: _84  and  _86
REMARK   38  A    between atoms: _86  and  _87
REMARK   39  A    between atoms: _86  and  _89
REMARK   40  A    between atoms: _89  and  _90
REMARK   41  A    between atoms: _93  and  _95
REMARK   42  A    between atoms: _95  and  _96
REMARK   43  A    between atoms: _95  and  _98
REMARK   44  A    between atoms: _98  and  _99
REMARK   45  A    between atoms: _102  and  _104
REMARK   46  A    between atoms: _104  and  _105
REMARK   47  A    between atoms: _104  and  _107
REMARK   48  A    between atoms: _109  and  _111
REMARK   49  A    between atoms: _111  and  _112
REMARK   50  A    between atoms: _115  and  _117
REMARK   51  A    between atoms: _117  and  _118
REMARK   52  A    between atoms: _117  and  _120
REMARK   53  A    between atoms: _123  and  _125
REMARK   54  A    between atoms: _125  and  _126
REMARK   55  A    between atoms: _125  and  _128
REMARK   56  A    between atoms: _128  and  _129
REMARK   57  A    between atoms: _129  and  _130
REMARK   58  A    between atoms: _130  and  _131
REMARK   59  A    between atoms: _131  and  _132
REMARK   60  A    between atoms: _136  and  _138
REMARK   61  A    between atoms: _138  and  _139
REMARK   62  A    between atoms: _138  and  _141
REMARK   63  A    between atoms: _144  and  _146
REMARK   64  A    between atoms: _146  and  _147
REMARK   65  A    between atoms: _146  and  _149
REMARK   66  A    between atoms: _149  and  _150
REMARK   67  A    between atoms: _153  and  _155
REMARK   68  A    between atoms: _155  and  _156
REMARK   69  A    between atoms: _155  and  _158
REMARK   70  A    between atoms: _158  and  _159
REMARK   71  A    between atoms: _162  and  _164
REMARK   72  A    between atoms: _164  and  _165
REMARK   73  A    between atoms: _164  and  _167
REMARK   74  A    between atoms: _167  and  _168
REMARK   75  A    between atoms: _168  and  _169
REMARK   76  A    between atoms: _171  and  _173
REMARK   77  A    between atoms: _173  and  _174
REMARK   78  A    between atoms: _173  and  _176
REMARK   79  A    between atoms: _176  and  _177
REMARK   80  A    between atoms: _177  and  _178
REMARK   81  A    between atoms: _178  and  _179
REMARK   82  A    between atoms: _179  and  _180
REMARK   83  A    between atoms: _184  and  _186
REMARK   84  A    between atoms: _186  and  _187
REMARK   85  A    between atoms: _186  and  _189
REMARK   86  A    between atoms: _189  and  _190
REMARK   87  A    between atoms: _193  and  _195
REMARK   88  A    between atoms: _195  and  _196
REMARK   89  A    between atoms: _195  and  _198
REMARK   90  A    between atoms: _198  and  _199
REMARK   91  A    between atoms: _204  and  _205
REMARK   92  A    between atoms: _207  and  _209
REMARK   93  A    between atoms: _209  and  _210
REMARK   94  A    between atoms: _209  and  _212
REMARK   95  A    between atoms: _212  and  _213
REMARK   96  A    between atoms: _213  and  _214
REMARK   97  A    between atoms: _217  and  _219
REMARK   98  A    between atoms: _219  and  _220
REMARK   99  A    between atoms: _219  and  _222
REMARK  100  A    between atoms: _222  and  _223
REMARK  101  A    between atoms: _228  and  _229
REMARK  102  A    between atoms: _231  and  _233
REMARK  103  A    between atoms: _233  and  _234
REMARK  104  A    between atoms: _233  and  _236
REMARK  105  A    between atoms: _236  and  _237
REMARK  106  A    between atoms: _240  and  _242
REMARK  107  A    between atoms: _242  and  _243
REMARK  108  A    between atoms: _242  and  _245
REMARK  109  A    between atoms: _248  and  _250
REMARK  110  A    between atoms: _250  and  _251
REMARK  111  A    between atoms: _253  and  _255
REMARK  112  A    between atoms: _255  and  _256
REMARK  113  A    between atoms: _255  and  _258
REMARK  114  A    between atoms: _258  and  _259
REMARK  115  A    between atoms: _259  and  _260
REMARK  116  A    between atoms: _263  and  _265
REMARK  117  A    between atoms: _265  and  _266
REMARK  118  A    between atoms: _265  and  _268
REMARK  119  A    between atoms: _271  and  _273
REMARK  120  A    between atoms: _273  and  _274
REMARK  121  A    between atoms: _273  and  _276
REMARK  122  A    between atoms: _276  and  _277
REMARK  123  A    between atoms: _282  and  _283
REMARK  124  A    between atoms: _285  and  _287
REMARK  125  A    between atoms: _287  and  _288
REMARK  126  A    between atoms: _287  and  _290
REMARK  127  A    between atoms: _290  and  _291
REMARK  128  A    between atoms: _294  and  _296
REMARK  129  A    between atoms: _296  and  _297
REMARK  130  A    between atoms: _299  and  _301
REMARK  131  A    between atoms: _301  and  _302
REMARK  132  A    between atoms: _304  and  _306
REMARK  133  A    between atoms: _306  and  _307
REMARK  134  A    between atoms: _306  and  _309
REMARK  135  A    between atoms: _309  and  _310
REMARK  136  A    between atoms: _310  and  _311
REMARK  137  A    between atoms: _314  and  _316
REMARK  138  A    between atoms: _316  and  _317
REMARK  139  A    between atoms: _316  and  _319
REMARK  140  A    between atoms: _319  and  _320
REMARK  141  A    between atoms: _323  and  _325
REMARK  142  A    between atoms: _325  and  _326
REMARK  143  A    between atoms: _325  and  _328
REMARK  144  A    between atoms: _328  and  _329
REMARK  145  A    between atoms: _333  and  _334
REMARK  146  A    between atoms: _339  and  _341
REMARK  147  A    between atoms: _341  and  _342
REMARK  148  A    between atoms: _341  and  _344
REMARK  149  A    between atoms: _344  and  _345
REMARK  150  A    between atoms: _345  and  _346
REMARK  151  A    between atoms: _349  and  _351
REMARK  152  A    between atoms: _351  and  _352
REMARK  153  A    between atoms: _351  and  _354
REMARK  154  A    between atoms: _354  and  _355
REMARK  155  A    between atoms: _360  and  _362
REMARK  156  A    between atoms: _362  and  _363
REMARK  157  A    between atoms: _362  and  _365
REMARK  158  A    between atoms: _365  and  _366
REMARK  159  A    between atoms: _369  and  _371
REMARK  160  A    between atoms: _371  and  _372
REMARK  161  A    between atoms: _371  and  _374
REMARK  162  A    between atoms: _374  and  _375
REMARK  163  A    between atoms: _378  and  _380
REMARK  164  A    between atoms: _380  and  _381
REMARK  165  A    between atoms: _380  and  _383
REMARK  166  A    between atoms: _383  and  _384
REMARK  167  A    between atoms: _387  and  _389
REMARK  168  A    between atoms: _389  and  _390
REMARK  169  A    between atoms: _389  and  _392
REMARK  170  A    between atoms: _392  and  _393
REMARK  171  A    between atoms: _393  and  _394
REMARK  172  A    between atoms: _397  and  _399
REMARK  173  A    between atoms: _399  and  _400
REMARK  174  A    between atoms: _399  and  _402
REMARK  175  A    between atoms: _402  and  _403
REMARK  176  A    between atoms: _403  and  _404
REMARK  177  A    between atoms: _404  and  _405
REMARK  178  A    between atoms: _414  and  _416
REMARK  179  A    between atoms: _416  and  _417
REMARK  180  A    between atoms: _416  and  _419
REMARK  181  A    between atoms: _419  and  _420
REMARK  182  A    between atoms: _423  and  _425
REMARK  183  A    between atoms: _425  and  _426
REMARK  184  A    between atoms: _425  and  _428
REMARK  185  A    between atoms: _428  and  _429
REMARK  186  A    between atoms: _432  and  _434
REMARK  187  A    between atoms: _434  and  _435
REMARK  188  A    between atoms: _434  and  _437
REMARK  189  A    between atoms: _437  and  _438
REMARK  190  A    between atoms: _441  and  _443
REMARK  191  A    between atoms: _443  and  _444
REMARK  192  A    between atoms: _443  and  _446
REMARK  193  A    between atoms: _446  and  _447
REMARK  194  A    between atoms: _453  and  _455
REMARK  195  A    between atoms: _455  and  _456
REMARK  196  A    between atoms: _458  and  _460
REMARK  197  A    between atoms: _460  and  _461
REMARK  198  A    between atoms: _460  and  _463
REMARK  199  A    between atoms: _463  and  _464
REMARK  200  A    between atoms: _467  and  _469
REMARK  201  A    between atoms: _469  and  _470
REMARK  202  A    between atoms: _469  and  _472
REMARK  203  A    between atoms: _472  and  _473
REMARK  204  A    between atoms: _479  and  _481
REMARK  205  A    between atoms: _481  and  _482
REMARK  206  A    between atoms: _481  and  _484
REMARK  207  A    between atoms: _484  and  _485
REMARK  208  A    between atoms: _485  and  _486
REMARK  209  A    between atoms: _486  and  _487
REMARK  210  A    between atoms: _487  and  _488
REMARK  211  A    between atoms: _492  and  _494
REMARK  212  A    between atoms: _494  and  _495
REMARK  213  A    between atoms: _494  and  _497
REMARK  214  A    between atoms: _497  and  _498
REMARK  215  A    between atoms: _498  and  _499
REMARK                            x       y       z     vdW  Elec       q    Type
REMARK                         _______ _______ _______ _____ _____    ______ ____
ROOT
ATOM      1  CA  LEU A   3      16.644   7.854  34.106  0.00  0.00    +0.149 C 
ENDROOT
BRANCH   1   3
ATOM      2  C   LYS A   2      17.999   6.893  32.295  0.00  0.00    +0.241 C 
ATOM      3  N   LEU A   3      16.814   7.169  32.832  0.00  0.00    -0.297 N 
ATOM      4  H   LEU A   3      15.961   6.879  32.313  0.00  0.00    +0.150 HD
ATOM      5  O   LYS A   2      19.069   7.326  32.725  0.00  0.00    -0.273 OA
BRANCH   2   6
ATOM      6  CA  LYS A   2      17.972   6.030  31.049  0.00  0.00    +0.149 C 
BRANCH   6   8
ATOM      7  C   MET A   1      18.204   7.593  29.214  0.00  0.00    +0.238 C 
ATOM      8  N   LYS A   2      18.754   6.690  30.014  0.00  0.00    -0.297 N 
ATOM      9  H   LYS A   2      19.759   6.450  29.900  0.00  0.00    +0.150 HD
ATOM     10  O   MET A   1      17.000   7.855  29.232  0.00  0.00    -0.274 OA
BRANCH   7  11
ATOM     11  CA  MET A   1      19.147   8.325  28.247  0.00  0.00    +0.146 C 
BRANCH  11  12
ATOM     12  N   MET A   1      18.514   8.484  26.946  0.00  0.00    -0.238 NA
ATOM     13  H   MET A   1      18.438   9.428  26.516  0.00  0.00    +0.142 HD
ENDBRANCH  11  12
BRANCH  11  14
ATOM     14  CB  MET A   1      19.513   9.678  28.860  0.00  0.00    +0.038 C 
BRANCH  14  15
ATOM     15  CG  MET A   1      20.307   9.548  30.159  0.00  0.00    +0.060 C 
BRANCH  15  16
ATOM     16  SD  MET A   1      20.290  11.001  31.203  0.00  0.00    -0.139 S 
ATOM     17  CE  MET A   1      18.716  10.787  32.024  0.00  0.00    +0.069 C 
ENDBRANCH  15  16
ENDBRANCH  14  15
ENDBRANCH  11  14
ENDBRANCH   7  11
ENDBRANCH   6   8
BRANCH   6  18
ATOM     18  CB  LYS A   2      18.516   4.633  31.355  0.00  0.00    +0.029 C 
BRANCH  18  19
ATOM     19  CG  LYS A   2      17.536   3.753  32.120  0.00  0.00    +0.000 C 
BRANCH  19  20
ATOM     20  CD  LYS A   2      16.328   3.380  31.265  0.00  0.00    -0.024 C 
BRANCH  20  21
ATOM     21  CE  LYS A   2      15.319   2.508  32.002  0.00  0.00    -0.086 C 
BRANCH  21  22
ATOM     22  NZ  LYS A   2      14.546   3.240  33.040  0.00  0.00    +0.380 N 
ATOM     23  HZ1 LYS A   2      15.201   3.626  33.750  0.00  0.00    -0.089 HD
ATOM     24  HZ2 LYS A   2      13.880   2.587  33.500  0.00  0.00    -0.089 HD
ATOM     25  HZ3 LYS A   2      14.018   4.017  32.594  0.00  0.00    -0.089 HD
ENDBRANCH  21  22
ENDBRANCH  20  21
ENDBRANCH  19  20
ENDBRANCH  18  19
ENDBRANCH   6  18
ENDBRANCH   2   6
ENDBRANCH   1   3
BRANCH   1  26
ATOM     26  C   LEU A   3      16.297   6.799  35.141  0.00  0.00    +0.241 C 
ATOM     27  N   TYR A   4      17.062   6.751  36.230  0.00  0.00    -0.297 N 
ATOM     28  H   TYR A   4      17.866   7.407  36.305  0.00  0.00    +0.150 HD
ATOM     29  O   LEU A   3      15.353   6.029  34.942  0.00  0.00    -0.273 OA
BRANCH  27  30
ATOM     30  CA  TYR A   4      16.816   5.808  37.330  0.00  0.00    +0.153 C 
BRANCH  30  31
ATOM     31  C   TYR A   4      16.046   6.420  38.485  0.00  0.00    +0.241 C 
ATOM     32  O   TYR A   4      15.186   5.766  39.086  0.00  0.00    -0.273 OA
ATOM     33  N   GLU A   5      16.387   7.658  38.849  0.00  0.00    -0.298 N 
ATOM     34  H   GLU A   5      17.004   8.224  38.232  0.00  0.00    +0.150 HD
BRANCH  33  35
ATOM     35  CA  GLU A   5      15.899   8.232  40.115  0.00  0.00    +0.137 C 
BRANCH  35  36
ATOM     36  C   GLU A   5      15.686   9.741  40.047  0.00  0.00    +0.227 C 
ATOM     37  O   GLU A   5      16.182  10.413  39.147  0.00  0.00    -0.286 OA
ENDBRANCH  35  36
BRANCH  35  38
ATOM     38  CB  GLU A   5      16.872   7.921  41.275  0.00  0.00    +0.039 C 
BRANCH  38  39
ATOM     39  CG  GLU A   5      17.285   6.461  41.455  0.00  0.00    +0.116 C 
BRANCH  39  40
ATOM     40  CD  GLU A   5      16.194   5.567  42.038  0.00  0.00    +0.365 C 
ATOM     41  OE2 GLU A   5      15.125   6.078  42.438  0.00  0.00    -0.246 OA
ATOM     42  OE1 GLU A   5      16.412   4.334  42.107  0.00  0.00    -0.246 OA
ENDBRANCH  39  40
ENDBRANCH  38  39
ENDBRANCH  35  38
ENDBRANCH  33  35
ENDBRANCH  30  31
BRANCH  30  43
ATOM     43  CB  TYR A   4      18.143   5.264  37.890  0.00  0.00    +0.055 C 
BRANCH  43  44
ATOM     44  CG  TYR A   4      19.045   4.595  36.868  0.00  0.00    -0.020 A 
ATOM     45  CD2 TYR A   4      20.348   5.042  36.655  0.00  0.00    -0.001 A 
ATOM     46  CE2 TYR A   4      21.170   4.427  35.731  0.00  0.00    +0.036 A 
ATOM     47  CZ  TYR A   4      20.699   3.347  35.010  0.00  0.00    +0.134 A 
ATOM     48  CE1 TYR A   4      19.420   2.877  35.209  0.00  0.00    +0.036 A 
ATOM     49  CD1 TYR A   4      18.601   3.500  36.133  0.00  0.00    -0.001 A 
BRANCH  47  50
ATOM     50  OH  TYR A   4      21.501   2.729  34.085  0.00  0.00    -0.506 OA
ATOM     51  HH  TYR A   4      21.005   1.981  33.667  0.00  0.00    +0.292 HD
ENDBRANCH  47  50
ENDBRANCH  43  44
ENDBRANCH  30  43
ENDBRANCH  27  30
ENDBRANCH   1  26
BRANCH   1  52
ATOM     52  CB  LEU A   3      15.520   8.894  34.005  0.00  0.00    +0.029 C 
BRANCH  52  53
ATOM     53  CG  LEU A   3      15.245   9.762  35.246  0.00  0.00    +0.002 C 
ATOM     54  CD2 LEU A   3      16.422  10.686  35.537  0.00  0.00    +0.000 C 
ATOM     55  CD1 LEU A   3      13.956  10.573  35.078  0.00  0.00    +0.000 C 
ENDBRANCH  52  53
ENDBRANCH   1  52
TORSDOF 26
REMARK  Name = ../refined-set-2016/3v5p/3v5p_pocket.pdb
REMARK  215 active torsions:
REMARK  status: ('A' for Active; 'I' for Inactive)
REMARK    1  A    between atoms: _1  and  _3
REMARK    2  A    between atoms: _3  and  _4
REMARK    3  A    between atoms: _3  and  _6
REMARK    4  A    between atoms: _9  and  _11
REMARK    5  A    between atoms: _11  and  _12
REMARK    6  A    between atoms: _11  and  _14
REMARK    7  A    between atoms: _14  and  _15
REMARK    8  A    between atoms: _18  and  _20
REMARK    9  A    between atoms: _20  and  _21
REMARK   10  A    between atoms: _23  and  _25
REMARK   11  A    between atoms: _25  and  _26
REMARK   12  A    between atoms: _25  and  _28
REMARK   13  A    between atoms: _28  and  _29
REMARK   14  A    between atoms: _29  and  _30
REMARK   15  A    between atoms: _30  and  _31
REMARK   16  A    between atoms: _31  and  _32
REMARK   17  A    between atoms: _36  and  _38
REMARK   18  A    between atoms: _38  and  _39
REMARK   19  A    between atoms: _41  and  _43
REMARK   20  A    between atoms: _43  and  _44
REMARK   21  A    between atoms: _43  and  _46
REMARK   22  A    between atoms: _46  and  _47
REMARK   23  A    between atoms: _49  and  _51
REMARK   24  A    between atoms: _51  and  _52
REMARK   25  A    between atoms: _51  and  _54
REMARK   26  A    between atoms: _54  and  _55
REMARK   27  A    between atoms: _61  and  _63
REMARK   28  A    between atoms: _63  and  _64
REMARK   29  A    between atoms: _66  and  _68
REMARK   30  A    between atoms: _68  and  _69
REMARK   31  A    between atoms: _68  and  _71
REMARK   32  A    between atoms: _71  and  _72
REMARK   33  A    between atoms: _72  and  _73
REMARK   34  A    between atoms: _76  and  _78
REMARK   35  A    between atoms: _78  and  _79
REMARK   36  A    between atoms: _78  and  _81
REMARK   37  A    between atoms: _84  and  _86
REMARK   38  A    between atoms: _86  and  _87
REMARK   39  A    between atoms: _86  and  _89
REMARK   40  A    between atoms: _89  and  _90
REMARK   41  A    between atoms: _93  and  _95
REMARK   42  A    between atoms: _95  and  _96
REMARK   43  A    between atoms: _95  and  _98
REMARK   44  A    between atoms: _98  and  _99
REMARK   45  A    between atoms: _102  and  _104
REMARK   46  A    between atoms: _104  and  _105
REMARK   47  A    between atoms: _104  and  _107
REMARK   48  A    between atoms: _109  and  _111
REMARK   49  A    between atoms: _111  and  _112
REMARK   50  A    between atoms: _115  and  _117
REMARK   51  A    between atoms: _117  and  _118
REMARK   52  A    between atoms: _117  and  _120
REMARK   53  A    between atoms: _123  and  _125
REMARK   54  A    between atoms: _125  and  _126
REMARK   55  A    between atoms: _125  and  _128
REMARK   56  A    between atoms: _128  and  _129
REMARK   57  A    between atoms: _129  and  _130
REMARK   58  A    between atoms: _130  and  _131
REMARK   59  A    between atoms: _131  and  _132
REMARK   60  A    between atoms: _136  and  _138
REMARK   61  A    between atoms: _138  and  _139
REMARK   62  A    between atoms: _138  and  _141
REMARK   63  A    between atoms: _144  and  _146
REMARK   64  A    between atoms: _146  and  _147
REMARK   65  A    between atoms: _146  and  _149
REMARK   66  A    between atoms: _149  and  _150
REMARK   67  A    between atoms: _153  and  _155
REMARK   68  A    between atoms: _155  and  _156
REMARK   69  A    between atoms: _155  and  _158
REMARK   70  A    between atoms: _158  and  _159
REMARK   71  A    between atoms: _162  and  _164
REMARK   72  A    between atoms: _164  and  _165
REMARK   73  A    between atoms: _164  and  _167
REMARK   74  A    between atoms: _167  and  _168
REMARK   75  A    between atoms: _168  and  _169
REMARK   76  A    between atoms: _171  and  _173
REMARK   77  A    between atoms: _173  and  _174
REMARK   78  A    between atoms: _173  and  _176
REMARK   79  A    between atoms: _176  and  _177
REMARK   80  A    between atoms: _177  and  _178
REMARK   81  A    between atoms: _178  and  _179
REMARK   82  A    between atoms: _179  and  _180
REMARK   83  A    between atoms: _184  and  _186
REMARK   84  A    between atoms: _186  and  _187
REMARK   85  A    between atoms: _186  and  _189
REMARK   86  A    between atoms: _189  and  _190
REMARK   87  A    between atoms: _193  and  _195
REMARK   88  A    between atoms: _195  and  _196
REMARK   89  A    between atoms: _195  and  _198
REMARK   90  A    between atoms: _198  and  _199
REMARK   91  A    between atoms: _204  and  _205
REMARK   92  A    between atoms: _207  and  _209
REMARK   93  A    between atoms: _209  and  _210
REMARK   94  A    between atoms: _209  and  _212
REMARK   95  A    between atoms: _212  and  _213
REMARK   96  A    between atoms: _213  and  _214
REMARK   97  A    between atoms: _217  and  _219
REMARK   98  A    between atoms: _219  and  _220
REMARK   99  A    between atoms: _219  and  _222
REMARK  100  A    between atoms: _222  and  _223
REMARK  101  A    between atoms: _228  and  _229
REMARK  102  A    between atoms: _231  and  _233
REMARK  103  A    between atoms: _233  and  _234
REMARK  104  A    between atoms: _233  and  _236
REMARK  105  A    between atoms: _236  and  _237
REMARK  106  A    between atoms: _240  and  _242
REMARK  107  A    between atoms: _242  and  _243
REMARK  108  A    between atoms: _242  and  _245
REMARK  109  A    between atoms: _248  and  _250
REMARK  110  A    between atoms: _250  and  _251
REMARK  111  A    between atoms: _253  and  _255
REMARK  112  A    between atoms: _255  and  _256
REMARK  113  A    between atoms: _255  and  _258
REMARK  114  A    between atoms: _258  and  _259
REMARK  115  A    between atoms: _259  and  _260
REMARK  116  A    between atoms: _263  and  _265
REMARK  117  A    between atoms: _265  and  _266
REMARK  118  A    between atoms: _265  and  _268
REMARK  119  A    between atoms: _271  and  _273
REMARK  120  A    between atoms: _273  and  _274
REMARK  121  A    between atoms: _273  and  _276
REMARK  122  A    between atoms: _276  and  _277
REMARK  123  A    between atoms: _282  and  _283
REMARK  124  A    between atoms: _285  and  _287
REMARK  125  A    between atoms: _287  and  _288
REMARK  126  A    between atoms: _287  and  _290
REMARK  127  A    between atoms: _290  and  _291
REMARK  128  A    between atoms: _294  and  _296
REMARK  129  A    between atoms: _296  and  _297
REMARK  130  A    between atoms: _299  and  _301
REMARK  131  A    between atoms: _301  and  _302
REMARK  132  A    between atoms: _304  and  _306
REMARK  133  A    between atoms: _306  and  _307
REMARK  134  A    between atoms: _306  and  _309
REMARK  135  A    between atoms: _309  and  _310
REMARK  136  A    between atoms: _310  and  _311
REMARK  137  A    between atoms: _314  and  _316
REMARK  138  A    between atoms: _316  and  _317
REMARK  139  A    between atoms: _316  and  _319
REMARK  140  A    between atoms: _319  and  _320
REMARK  141  A    between atoms: _323  and  _325
REMARK  142  A    between atoms: _325  and  _326
REMARK  143  A    between atoms: _325  and  _328
REMARK  144  A    between atoms: _328  and  _329
REMARK  145  A    between atoms: _333  and  _334
REMARK  146  A    between atoms: _339  and  _341
REMARK  147  A    between atoms: _341  and  _342
REMARK  148  A    between atoms: _341  and  _344
REMARK  149  A    between atoms: _344  and  _345
REMARK  150  A    between atoms: _345  and  _346
REMARK  151  A    between atoms: _349  and  _351
REMARK  152  A    between atoms: _351  and  _352
REMARK  153  A    between atoms: _351  and  _354
REMARK  154  A    between atoms: _354  and  _355
REMARK  155  A    between atoms: _360  and  _362
REMARK  156  A    between atoms: _362  and  _363
REMARK  157  A    between atoms: _362  and  _365
REMARK  158  A    between atoms: _365  and  _366
REMARK  159  A    between atoms: _369  and  _371
REMARK  160  A    between atoms: _371  and  _372
REMARK  161  A    between atoms: _371  and  _374
REMARK  162  A    between atoms: _374  and  _375
REMARK  163  A    between atoms: _378  and  _380
REMARK  164  A    between atoms: _380  and  _381
REMARK  165  A    between atoms: _380  and  _383
REMARK  166  A    between atoms: _383  and  _384
REMARK  167  A    between atoms: _387  and  _389
REMARK  168  A    between atoms: _389  and  _390
REMARK  169  A    between atoms: _389  and  _392
REMARK  170  A    between atoms: _392  and  _393
REMARK  171  A    between atoms: _393  and  _394
REMARK  172  A    between atoms: _397  and  _399
REMARK  173  A    between atoms: _399  and  _400
REMARK  174  A    between atoms: _399  and  _402
REMARK  175  A    between atoms: _402  and  _403
REMARK  176  A    between atoms: _403  and  _404
REMARK  177  A    between atoms: _404  and  _405
REMARK  178  A    between atoms: _414  and  _416
REMARK  179  A    between atoms: _416  and  _417
REMARK  180  A    between atoms: _416  and  _419
REMARK  181  A    between atoms: _419  and  _420
REMARK  182  A    between atoms: _423  and  _425
REMARK  183  A    between atoms: _425  and  _426
REMARK  184  A    between atoms: _425  and  _428
REMARK  185  A    between atoms: _428  and  _429
REMARK  186  A    between atoms: _432  and  _434
REMARK  187  A    between atoms: _434  and  _435
REMARK  188  A    between atoms: _434  and  _437
REMARK  189  A    between atoms: _437  and  _438
REMARK  190  A    between atoms: _441  and  _443
REMARK  191  A    between atoms: _443  and  _444
REMARK  192  A    between atoms: _443  and  _446
REMARK  193  A    between atoms: _446  and  _447
REMARK  194  A    between atoms: _453  and  _455
REMARK  195  A    between atoms: _455  and  _456
REMARK  196  A    between atoms: _458  and  _460
REMARK  197  A    between atoms: _460  and  _461
REMARK  198  A    between atoms: _460  and  _463
REMARK  199  A    between atoms: _463  and  _464
REMARK  200  A    between atoms: _467  and  _469
REMARK  201  A    between atoms: _469  and  _470
REMARK  202  A    between atoms: _469  and  _472
REMARK  203  A    between atoms: _472  and  _473
REMARK  204  A    between atoms: _479  and  _481
REMARK  205  A    between atoms: _481  and  _482
REMARK  206  A    between atoms: _481  and  _484
REMARK  207  A    between atoms: _484  and  _485
REMARK  208  A    between atoms: _485  and  _486
REMARK  209  A    between atoms: _486  and  _487
REMARK  210  A    between atoms: _487  and  _488
REMARK  211  A    between atoms: _492  and  _494
REMARK  212  A    between atoms: _494  and  _495
REMARK  213  A    between atoms: _494  and  _497
REMARK  214  A    between atoms: _497  and  _498
REMARK  215  A    between atoms: _498  and  _499
REMARK                            x       y       z     vdW  Elec       q    Type
REMARK                         _______ _______ _______ _____ _____    ______ ____
ROOT
ATOM      1  C   VAL A   6      26.997   7.275  31.282  0.00  0.00    +0.241 C 
ATOM      2  O   VAL A   6      27.155   6.076  31.112  0.00  0.00    -0.273 OA
ATOM      3  N   TYR A   7      27.238   8.184  30.336  0.00  0.00    -0.297 N 
ATOM      4  H   TYR A   7      26.977   9.174  30.520  0.00  0.00    +0.150 HD
ENDROOT
BRANCH   1   5
ATOM      5  CA  VAL A   6      26.456   7.798  32.617  0.00  0.00    +0.149 C 
BRANCH   5   7
ATOM      6  C   GLU A   5      24.059   7.299  32.781  0.00  0.00    +0.241 C 
ATOM      7  N   VAL A   6      25.323   6.977  33.067  0.00  0.00    -0.297 N 
ATOM      8  H   VAL A   6      25.511   6.120  33.625  0.00  0.00    +0.150 HD
ATOM      9  O   GLU A   5      23.744   8.327  32.177  0.00  0.00    -0.273 OA
BRANCH   6  10
ATOM     10  CA  GLU A   5      22.975   6.333  33.253  0.00  0.00    +0.149 C 
BRANCH  10  13
ATOM     11  C   GLY A   4      21.901   7.844  34.818  0.00  0.00    +0.243 C 
ATOM     12  O   GLY A   4      22.895   7.879  35.544  0.00  0.00    -0.273 OA
ATOM     13  N   GLU A   5      21.839   7.109  33.718  0.00  0.00    -0.297 N 
ATOM     14  H   GLU A   5      20.954   7.087  33.173  0.00  0.00    +0.150 HD
BRANCH  11  15
ATOM     15  CA  GLY A   4      20.664   8.659  35.125  0.00  0.00    +0.176 C 
BRANCH  15  18
ATOM     16  C   VAL A   3      19.803   9.500  37.238  0.00  0.00    +0.241 C 
ATOM     17  O   VAL A   3      18.798   8.795  37.164  0.00  0.00    -0.273 OA
ATOM     18  N   GLY A   4      20.758   9.508  36.307  0.00  0.00    -0.295 N 
ATOM     19  H   GLY A   4      21.583  10.130  36.426  0.00  0.00    +0.150 HD
BRANCH  16  20
ATOM     20  CA  VAL A   3      19.982  10.411  38.429  0.00  0.00    +0.149 C 
BRANCH  20  22
ATOM     21  C   LEU A   2      19.159  12.703  38.092  0.00  0.00    +0.241 C 
ATOM     22  N   VAL A   3      18.915  11.427  38.403  0.00  0.00    -0.297 N 
ATOM     23  H   VAL A   3      17.942  11.142  38.634  0.00  0.00    +0.150 HD
ATOM     24  O   LEU A   2      20.263  13.099  37.735  0.00  0.00    -0.273 OA
BRANCH  21  25
ATOM     25  CA  LEU A   2      18.002  13.695  38.223  0.00  0.00    +0.149 C 
BRANCH  25  28
ATOM     26  C   TYR A   1      17.914  14.690  40.420  0.00  0.00    +0.239 C 
ATOM     27  O   TYR A   1      17.046  13.903  40.778  0.00  0.00    -0.274 OA
ATOM     28  N   LEU A   2      18.414  14.688  39.197  0.00  0.00    -0.297 N 
ATOM     29  H   LEU A   2      19.114  15.409  38.929  0.00  0.00    +0.150 HD
BRANCH  26  30
ATOM     30  CA  TYR A   1      18.464  15.731  41.374  0.00  0.00    +0.149 C 
BRANCH  30  31
ATOM     31  N   TYR A   1      17.372  16.596  41.794  0.00  0.00    -0.238 NA
ATOM     32  H   TYR A   1      16.540  16.173  42.253  0.00  0.00    +0.142 HD
ENDBRANCH  30  31
BRANCH  30  33
ATOM     33  CB  TYR A   1      19.103  15.037  42.573  0.00  0.00    +0.053 C 
BRANCH  33  34
ATOM     34  CG  TYR A   1      19.547  15.973  43.671  0.00  0.00    -0.020 A 
ATOM     35  CD2 TYR A   1      18.661  16.395  44.648  0.00  0.00    -0.001 A 
ATOM     36  CE2 TYR A   1      19.069  17.247  45.663  0.00  0.00    +0.036 A 
ATOM     37  CZ  TYR A   1      20.375  17.688  45.701  0.00  0.00    +0.134 A 
ATOM     38  CE1 TYR A   1      21.271  17.279  44.745  0.00  0.00    +0.036 A 
ATOM     39  CD1 TYR A   1      20.852  16.431  43.733  0.00  0.00    -0.001 A 
BRANCH  37  40
ATOM     40  OH  TYR A   1      20.791  18.546  46.696  0.00  0.00    -0.506 OA
ATOM     41  HH  TYR A   1      20.661  18.115  47.578  0.00  0.00    +0.292 HD
ENDBRANCH  37  40
ENDBRANCH  33  34
ENDBRANCH  30  33
ENDBRANCH  26  30
ENDBRANCH  25  28
BRANCH  25  42
ATOM     42  CB  LEU A   2      17.688  14.374  36.899  0.00  0.00    +0.029 C 
BRANCH  42  43
ATOM     43  CG  LEU A   2      16.455  15.287  36.835  0.00  0.00    +0.002 C 
ATOM     44  CD2 LEU A   2      15.272  14.591  36.163  0.00  0.00    +0.000 C 
ATOM     45  CD1 LEU A   2      16.767  16.571  36.085  0.00  0.00    +0.000 C 
ENDBRANCH  42  43
ENDBRANCH  25  42
ENDBRANCH  21  25
ENDBRANCH  20  22
BRANCH  20  46
ATOM     46  CB  VAL A   3      19.895   9.544  39.702  0.00  0.00    +0.027 C 
ATOM     47  CG2 VAL A   3      19.877  10.415  40.960  0.00  0.00    +0.002 C 
ATOM     48  CG1 VAL A   3      21.008   8.489  39.753  0.00  0.00    +0.002 C 
ENDBRANCH  20  46
ENDBRANCH  16  20
ENDBRANCH  15  18
ENDBRANCH  11  15
ENDBRANCH  10  13
BRANCH  10  49
ATOM     49  CB  GLU A   5      22.541   5.412  32.117  0.00  0.00    +0.041 C 
BRANCH  49  50
ATOM     50  CG  GLU A   5      23.604   4.409  31.693  0.00  0.00    +0.116 C 
BRANCH  50  51
ATOM     51  CD  GLU A   5      23.080   3.338  30.754  0.00  0.00    +0.365 C 
ATOM     52  OE2 GLU A   5      23.796   2.343  30.564  0.00  0.00    -0.246 OA
ATOM     53  OE1 GLU A   5      21.969   3.486  30.190  0.00  0.00    -0.246 OA
ENDBRANCH  50  51
ENDBRANCH  49  50
ENDBRANCH  10  49
ENDBRANCH   6  10
ENDBRANCH   5   7
BRANCH   5  54
ATOM     54  CB  VAL A   6      27.586   7.864  33.676  0.00  0.00    +0.027 C 
ATOM     55  CG2 VAL A   6      28.182   6.493  33.935  0.00  0.00    +0.002 C 
ATOM     56  CG1 VAL A   6      28.674   8.836  33.242  0.00  0.00    +0.002 C 
ENDBRANCH   5  54
ENDBRANCH   1   5
BRANCH   3  57
ATOM     57  CA  TYR A   7      27.858   7.848  29.043  0.00  0.00    +0.153 C 
BRANCH  57  58
ATOM     58  C   TYR A   7      29.193   8.563  28.896  0.00  0.00    +0.241 C 
ATOM     59  O   TYR A   7      29.356   9.716  29.314  0.00  0.00    -0.273 OA
ATOM     60  N   THR A   8      30.146   7.854  28.303  0.00  0.00    -0.295 N 
ATOM     61  H   THR A   8      29.880   6.982  27.802  0.00  0.00    +0.150 HD
BRANCH  60  62
ATOM     62  CA  THR A   8      31.545   8.244  28.324  0.00  0.00    +0.176 C 
BRANCH  62  63
ATOM     63  C   THR A   8      32.105   8.521  26.933  0.00  0.00    +0.243 C 
ATOM     64  O   THR A   8      33.294   8.783  26.795  0.00  0.00    -0.273 OA
ATOM     65  N   GLY A   9      31.266   8.446  25.903  0.00  0.00    -0.295 N 
ATOM     66  H   GLY A   9      30.265   8.225  26.079  0.00  0.00    +0.150 HD
BRANCH  65  67
ATOM     67  CA  GLY A   9      31.718   8.667  24.524  0.00  0.00    +0.176 C 
BRANCH  67  68
ATOM     68  C   GLY A   9      31.769  10.127  24.095  0.00  0.00    +0.243 C 
ATOM     69  N   GLY A  10      31.245  11.021  24.935  0.00  0.00    -0.295 N 
ATOM     70  H   GLY A  10      30.832  10.686  25.829  0.00  0.00    +0.150 HD
ATOM     71  O   GLY A   9      32.273  10.437  23.011  0.00  0.00    -0.273 OA
BRANCH  69  72
ATOM     72  CA  GLY A  10      31.230  12.462  24.644  0.00  0.00    +0.176 C 
BRANCH  72  73
ATOM     73  C   GLY A  10      30.188  12.860  23.608  0.00  0.00    +0.243 C 
ATOM     74  O   GLY A  10      29.335  12.057  23.233  0.00  0.00    -0.273 OA
ATOM     75  N   GLU A  11      30.264  14.105  23.144  0.00  0.00    -0.297 N 
ATOM     76  H   GLU A  11      31.018  14.727  23.499  0.00  0.00    +0.150 HD
BRANCH  75  77
ATOM     77  CA  GLU A  11      29.327  14.631  22.154  0.00  0.00    +0.149 C 
BRANCH  77  78
ATOM     78  C   GLU A  11      29.618  14.102  20.750  0.00  0.00    +0.241 C 
ATOM     79  O   GLU A  11      30.765  14.007  20.337  0.00  0.00    -0.273 OA
ATOM     80  N   LEU A  12      28.560  13.781  20.019  0.00  0.00    -0.298 N 
ATOM     81  H   LEU A  12      27.612  13.917  20.423  0.00  0.00    +0.150 HD
BRANCH  80  82
ATOM     82  CA  LEU A  12      28.677  13.245  18.672  0.00  0.00    +0.137 C 
BRANCH  82  83
ATOM     83  C   LEU A  12      29.653  14.038  17.795  0.00  0.00    +0.227 C 
ATOM     84  O   LEU A  12      30.558  13.457  17.187  0.00  0.00    -0.286 OA
ENDBRANCH  82  83
BRANCH  82  85
ATOM     85  CB  LEU A  12      27.302  13.215  18.013  0.00  0.00    +0.028 C 
BRANCH  85  86
ATOM     86  CG  LEU A  12      27.249  12.713  16.565  0.00  0.00    +0.002 C 
ATOM     87  CD2 LEU A  12      27.732  11.266  16.479  0.00  0.00    +0.000 C 
ATOM     88  CD1 LEU A  12      25.839  12.869  16.010  0.00  0.00    +0.000 C 
ENDBRANCH  85  86
ENDBRANCH  82  85
ENDBRANCH  80  82
ENDBRANCH  77  78
BRANCH  77  89
ATOM     89  CB  GLU A  11      29.369  16.161  22.141  0.00  0.00    +0.041 C 
BRANCH  89  90
ATOM     90  CG  GLU A  11      28.744  16.802  23.366  0.00  0.00    +0.116 C 
BRANCH  90  91
ATOM     91  CD  GLU A  11      29.053  18.287  23.480  0.00  0.00    +0.365 C 
ATOM     92  OE2 GLU A  11      29.240  18.747  24.616  0.00  0.00    -0.246 OA
ATOM     93  OE1 GLU A  11      29.087  18.998  22.449  0.00  0.00    -0.246 OA
ENDBRANCH  90  91
ENDBRANCH  89  90
ENDBRANCH  77  89
ENDBRANCH  75  77
ENDBRANCH  72  73
ENDBRANCH  69  72
ENDBRANCH  67  68
ENDBRANCH  65  67
ENDBRANCH  62  63
BRANCH  62  94
ATOM     94  CB  THR A   8      32.383   7.110  28.941  0.00  0.00    +0.137 C 
ATOM     95  CG2 THR A   8      31.895   6.784  30.344  0.00  0.00    +0.034 C 
BRANCH  94  96
ATOM     96  OG1 THR A   8      32.248   5.946  28.118  0.00  0.00    -0.382 OA
ATOM     97  HG1 THR A   8      32.783   5.207  28.503  0.00  0.00    +0.210 HD
ENDBRANCH  94  96
ENDBRANCH  62  94
ENDBRANCH  60  62
ENDBRANCH  57  58
BRANCH  57  98
ATOM     98  CB  TYR A   7      26.927   8.174  27.870  0.00  0.00    +0.055 C 
BRANCH  98  99
ATOM     99  CG  TYR A   7      25.555   7.600  28.082  0.00  0.00    -0.020 A 
ATOM    100  CD2 TYR A   7      24.466   8.425  28.309  0.00  0.00    -0.001 A 
ATOM    101  CE2 TYR A   7      23.211   7.896  28.533  0.00  0.00    +0.036 A 
ATOM    102  CZ  TYR A   7      23.032   6.537  28.570  0.00  0.00    +0.134 A 
ATOM    103  CE1 TYR A   7      24.095   5.691  28.354  0.00  0.00    +0.036 A 
ATOM    104  CD1 TYR A   7      25.353   6.223  28.117  0.00  0.00    -0.001 A 
BRANCH 102 105
ATOM    105  OH  TYR A   7      21.768   6.039  28.806  0.00  0.00    -0.506 OA
ATOM    106  HH  TYR A   7      21.799   5.049  28.803  0.00  0.00    +0.292 HD
ENDBRANCH 102 105
ENDBRANCH  98  99
ENDBRANCH  57  98
ENDBRANCH   3  57
TORSDOF 44
REMARK  Name = ../refined-set-2016/3v5p/3v5p_pocket.pdb
REMARK  215 active torsions:
REMARK  status: ('A' for Active; 'I' for Inactive)
REMARK    1  A    between atoms: _1  and  _3
REMARK    2  A    between atoms: _3  and  _4
REMARK    3  A    between atoms: _3  and  _6
REMARK    4  A    between atoms: _9  and  _11
REMARK    5  A    between atoms: _11  and  _12
REMARK    6  A    between atoms: _11  and  _14
REMARK    7  A    between atoms: _14  and  _15
REMARK    8  A    between atoms: _18  and  _20
REMARK    9  A    between atoms: _20  and  _21
REMARK   10  A    between atoms: _23  and  _25
REMARK   11  A    between atoms: _25  and  _26
REMARK   12  A    between atoms: _25  and  _28
REMARK   13  A    between atoms: _28  and  _29
REMARK   14  A    between atoms: _29  and  _30
REMARK   15  A    between atoms: _30  and  _31
REMARK   16  A    between atoms: _31  and  _32
REMARK   17  A    between atoms: _36  and  _38
REMARK   18  A    between atoms: _38  and  _39
REMARK   19  A    between atoms: _41  and  _43
REMARK   20  A    between atoms: _43  and  _44
REMARK   21  A    between atoms: _43  and  _46
REMARK   22  A    between atoms: _46  and  _47
REMARK   23  A    between atoms: _49  and  _51
REMARK   24  A    between atoms: _51  and  _52
REMARK   25  A    between atoms: _51  and  _54
REMARK   26  A    between atoms: _54  and  _55
REMARK   27  A    between atoms: _61  and  _63
REMARK   28  A    between atoms: _63  and  _64
REMARK   29  A    between atoms: _66  and  _68
REMARK   30  A    between atoms: _68  and  _69
REMARK   31  A    between atoms: _68  and  _71
REMARK   32  A    between atoms: _71  and  _72
REMARK   33  A    between atoms: _72  and  _73
REMARK   34  A    between atoms: _76  and  _78
REMARK   35  A    between atoms: _78  and  _79
REMARK   36  A    between atoms: _78  and  _81
REMARK   37  A    between atoms: _84  and  _86
REMARK   38  A    between atoms: _86  and  _87
REMARK   39  A    between atoms: _86  and  _89
REMARK   40  A    between atoms: _89  and  _90
REMARK   41  A    between atoms: _93  and  _95
REMARK   42  A    between atoms: _95  and  _96
REMARK   43  A    between atoms: _95  and  _98
REMARK   44  A    between atoms: _98  and  _99
REMARK   45  A    between atoms: _102  and  _104
REMARK   46  A    between atoms: _104  and  _105
REMARK   47  A    between atoms: _104  and  _107
REMARK   48  A    between atoms: _109  and  _111
REMARK   49  A    between atoms: _111  and  _112
REMARK   50  A    between atoms: _115  and  _117
REMARK   51  A    between atoms: _117  and  _118
REMARK   52  A    between atoms: _117  and  _120
REMARK   53  A    between atoms: _123  and  _125
REMARK   54  A    between atoms: _125  and  _126
REMARK   55  A    between atoms: _125  and  _128
REMARK   56  A    between atoms: _128  and  _129
REMARK   57  A    between atoms: _129  and  _130
REMARK   58  A    between atoms: _130  and  _131
REMARK   59  A    between atoms: _131  and  _132
REMARK   60  A    between atoms: _136  and  _138
REMARK   61  A    between atoms: _138  and  _139
REMARK   62  A    between atoms: _138  and  _141
REMARK   63  A    between atoms: _144  and  _146
REMARK   64  A    between atoms: _146  and  _147
REMARK   65  A    between atoms: _146  and  _149
REMARK   66  A    between atoms: _149  and  _150
REMARK   67  A    between atoms: _153  and  _155
REMARK   68  A    between atoms: _155  and  _156
REMARK   69  A    between atoms: _155  and  _158
REMARK   70  A    between atoms: _158  and  _159
REMARK   71  A    between atoms: _162  and  _164
REMARK   72  A    between atoms: _164  and  _165
REMARK   73  A    between atoms: _164  and  _167
REMARK   74  A    between atoms: _167  and  _168
REMARK   75  A    between atoms: _168  and  _169
REMARK   76  A    between atoms: _171  and  _173
REMARK   77  A    between atoms: _173  and  _174
REMARK   78  A    between atoms: _173  and  _176
REMARK   79  A    between atoms: _176  and  _177
REMARK   80  A    between atoms: _177  and  _178
REMARK   81  A    between atoms: _178  and  _179
REMARK   82  A    between atoms: _179  and  _180
REMARK   83  A    between atoms: _184  and  _186
REMARK   84  A    between atoms: _186  and  _187
REMARK   85  A    between atoms: _186  and  _189
REMARK   86  A    between atoms: _189  and  _190
REMARK   87  A    between atoms: _193  and  _195
REMARK   88  A    between atoms: _195  and  _196
REMARK   89  A    between atoms: _195  and  _198
REMARK   90  A    between atoms: _198  and  _199
REMARK   91  A    between atoms: _204  and  _205
REMARK   92  A    between atoms: _207  and  _209
REMARK   93  A    between atoms: _209  and  _210
REMARK   94  A    between atoms: _209  and  _212
REMARK   95  A    between atoms: _212  and  _213
REMARK   96  A    between atoms: _213  and  _214
REMARK   97  A    between atoms: _217  and  _219
REMARK   98  A    between atoms: _219  and  _220
REMARK   99  A    between atoms: _219  and  _222
REMARK  100  A    between atoms: _222  and  _223
REMARK  101  A    between atoms: _228  and  _229
REMARK  102  A    between atoms: _231  and  _233
REMARK  103  A    between atoms: _233  and  _234
REMARK  104  A    between atoms: _233  and  _236
REMARK  105  A    between atoms: _236  and  _237
REMARK  106  A    between atoms: _240  and  _242
REMARK  107  A    between atoms: _242  and  _243
REMARK  108  A    between atoms: _242  and  _245
REMARK  109  A    between atoms: _248  and  _250
REMARK  110  A    between atoms: _250  and  _251
REMARK  111  A    between atoms: _253  and  _255
REMARK  112  A    between atoms: _255  and  _256
REMARK  113  A    between atoms: _255  and  _258
REMARK  114  A    between atoms: _258  and  _259
REMARK  115  A    between atoms: _259  and  _260
REMARK  116  A    between atoms: _263  and  _265
REMARK  117  A    between atoms: _265  and  _266
REMARK  118  A    between atoms: _265  and  _268
REMARK  119  A    between atoms: _271  and  _273
REMARK  120  A    between atoms: _273  and  _274
REMARK  121  A    between atoms: _273  and  _276
REMARK  122  A    between atoms: _276  and  _277
REMARK  123  A    between atoms: _282  and  _283
REMARK  124  A    between atoms: _285  and  _287
REMARK  125  A    between atoms: _287  and  _288
REMARK  126  A    between atoms: _287  and  _290
REMARK  127  A    between atoms: _290  and  _291
REMARK  128  A    between atoms: _294  and  _296
REMARK  129  A    between atoms: _296  and  _297
REMARK  130  A    between atoms: _299  and  _301
REMARK  131  A    between atoms: _301  and  _302
REMARK  132  A    between atoms: _304  and  _306
REMARK  133  A    between atoms: _306  and  _307
REMARK  134  A    between atoms: _306  and  _309
REMARK  135  A    between atoms: _309  and  _310
REMARK  136  A    between atoms: _310  and  _311
REMARK  137  A    between atoms: _314  and  _316
REMARK  138  A    between atoms: _316  and  _317
REMARK  139  A    between atoms: _316  and  _319
REMARK  140  A    between atoms: _319  and  _320
REMARK  141  A    between atoms: _323  and  _325
REMARK  142  A    between atoms: _325  and  _326
REMARK  143  A    between atoms: _325  and  _328
REMARK  144  A    between atoms: _328  and  _329
REMARK  145  A    between atoms: _333  and  _334
REMARK  146  A    between atoms: _339  and  _341
REMARK  147  A    between atoms: _341  and  _342
REMARK  148  A    between atoms: _341  and  _344
REMARK  149  A    between atoms: _344  and  _345
REMARK  150  A    between atoms: _345  and  _346
REMARK  151  A    between atoms: _349  and  _351
REMARK  152  A    between atoms: _351  and  _352
REMARK  153  A    between atoms: _351  and  _354
REMARK  154  A    between atoms: _354  and  _355
REMARK  155  A    between atoms: _360  and  _362
REMARK  156  A    between atoms: _362  and  _363
REMARK  157  A    between atoms: _362  and  _365
REMARK  158  A    between atoms: _365  and  _366
REMARK  159  A    between atoms: _369  and  _371
REMARK  160  A    between atoms: _371  and  _372
REMARK  161  A    between atoms: _371  and  _374
REMARK  162  A    between atoms: _374  and  _375
REMARK  163  A    between atoms: _378  and  _380
REMARK  164  A    between atoms: _380  and  _381
REMARK  165  A    between atoms: _380  and  _383
REMARK  166  A    between atoms: _383  and  _384
REMARK  167  A    between atoms: _387  and  _389
REMARK  168  A    between atoms: _389  and  _390
REMARK  169  A    between atoms: _389  and  _392
REMARK  170  A    between atoms: _392  and  _393
REMARK  171  A    between atoms: _393  and  _394
REMARK  172  A    between atoms: _397  and  _399
REMARK  173  A    between atoms: _399  and  _400
REMARK  174  A    between atoms: _399  and  _402
REMARK  175  A    between atoms: _402  and  _403
REMARK  176  A    between atoms: _403  and  _404
REMARK  177  A    between atoms: _404  and  _405
REMARK  178  A    between atoms: _414  and  _416
REMARK  179  A    between atoms: _416  and  _417
REMARK  180  A    between atoms: _416  and  _419
REMARK  181  A    between atoms: _419  and  _420
REMARK  182  A    between atoms: _423  and  _425
REMARK  183  A    between atoms: _425  and  _426
REMARK  184  A    between atoms: _425  and  _428
REMARK  185  A    between atoms: _428  and  _429
REMARK  186  A    between atoms: _432  and  _434
REMARK  187  A    between atoms: _434  and  _435
REMARK  188  A    between atoms: _434  and  _437
REMARK  189  A    between atoms: _437  and  _438
REMARK  190  A    between atoms: _441  and  _443
REMARK  191  A    between atoms: _443  and  _444
REMARK  192  A    between atoms: _443  and  _446
REMARK  193  A    between atoms: _446  and  _447
REMARK  194  A    between atoms: _453  and  _455
REMARK  195  A    between atoms: _455  and  _456
REMARK  196  A    between atoms: _458  and  _460
REMARK  197  A    between atoms: _460  and  _461
REMARK  198  A    between atoms: _460  and  _463
REMARK  199  A    between atoms: _463  and  _464
REMARK  200  A    between atoms: _467  and  _469
REMARK  201  A    between atoms: _469  and  _470
REMARK  202  A    between atoms: _469  and  _472
REMARK  203  A    between atoms: _472  and  _473
REMARK  204  A    between atoms: _479  and  _481
REMARK  205  A    between atoms: _481  and  _482
REMARK  206  A    between atoms: _481  and  _484
REMARK  207  A    between atoms: _484  and  _485
REMARK  208  A    between atoms: _485  and  _486
REMARK  209  A    between atoms: _486  and  _487
REMARK  210  A    between atoms: _487  and  _488
REMARK  211  A    between atoms: _492  and  _494
REMARK  212  A    between atoms: _494  and  _495
REMARK  213  A    between atoms: _494  and  _497
REMARK  214  A    between atoms: _497  and  _498
REMARK  215  A    between atoms: _498  and  _499
REMARK                            x       y       z     vdW  Elec       q    Type
REMARK                         _______ _______ _______ _____ _____    ______ ____
ROOT
ATOM      1  CA  ASP A   1      33.576  15.935  18.683  0.00  0.00    +0.144 C 
ENDROOT
BRANCH   1   2
ATOM      2  N   ASP A   1      32.157  16.044  18.348  0.00  0.00    -0.239 NA
ATOM      3  H   ASP A   1      31.450  15.989  19.108  0.00  0.00    +0.142 HD
ENDBRANCH   1   2
BRANCH   1   4
ATOM      4  C   ASP A   1      34.170  14.614  18.191  0.00  0.00    +0.225 C 
ATOM      5  O   ASP A   1      35.337  14.564  17.812  0.00  0.00    -0.287 OA
ENDBRANCH   1   4
BRANCH   1   6
ATOM      6  CB  ASP A   1      33.798  16.107  20.185  0.00  0.00    +0.139 C 
BRANCH   6   7
ATOM      7  CG  ASP A   1      33.355  17.468  20.682  0.00  0.00    +0.367 C 
ATOM      8  OD2 ASP A   1      32.907  17.545  21.828  0.00  0.00    -0.246 OA
ATOM      9  OD1 ASP A   1      33.442  18.464  19.931  0.00  0.00    -0.246 OA
ENDBRANCH   6   7
ENDBRANCH   1   6
TORSDOF 4
REMARK  Name = ../refined-set-2016/3v5p/3v5p_pocket.pdb
REMARK  215 active torsions:
REMARK  status: ('A' for Active; 'I' for Inactive)
REMARK    1  A    between atoms: _1  and  _3
REMARK    2  A    between atoms: _3  and  _4
REMARK    3  A    between atoms: _3  and  _6
REMARK    4  A    between atoms: _9  and  _11
REMARK    5  A    between atoms: _11  and  _12
REMARK    6  A    between atoms: _11  and  _14
REMARK    7  A    between atoms: _14  and  _15
REMARK    8  A    between atoms: _18  and  _20
REMARK    9  A    between atoms: _20  and  _21
REMARK   10  A    between atoms: _23  and  _25
REMARK   11  A    between atoms: _25  and  _26
REMARK   12  A    between atoms: _25  and  _28
REMARK   13  A    between atoms: _28  and  _29
REMARK   14  A    between atoms: _29  and  _30
REMARK   15  A    between atoms: _30  and  _31
REMARK   16  A    between atoms: _31  and  _32
REMARK   17  A    between atoms: _36  and  _38
REMARK   18  A    between atoms: _38  and  _39
REMARK   19  A    between atoms: _41  and  _43
REMARK   20  A    between atoms: _43  and  _44
REMARK   21  A    between atoms: _43  and  _46
REMARK   22  A    between atoms: _46  and  _47
REMARK   23  A    between atoms: _49  and  _51
REMARK   24  A    between atoms: _51  and  _52
REMARK   25  A    between atoms: _51  and  _54
REMARK   26  A    between atoms: _54  and  _55
REMARK   27  A    between atoms: _61  and  _63
REMARK   28  A    between atoms: _63  and  _64
REMARK   29  A    between atoms: _66  and  _68
REMARK   30  A    between atoms: _68  and  _69
REMARK   31  A    between atoms: _68  and  _71
REMARK   32  A    between atoms: _71  and  _72
REMARK   33  A    between atoms: _72  and  _73
REMARK   34  A    between atoms: _76  and  _78
REMARK   35  A    between atoms: _78  and  _79
REMARK   36  A    between atoms: _78  and  _81
REMARK   37  A    between atoms: _84  and  _86
REMARK   38  A    between atoms: _86  and  _87
REMARK   39  A    between atoms: _86  and  _89
REMARK   40  A    between atoms: _89  and  _90
REMARK   41  A    between atoms: _93  and  _95
REMARK   42  A    between atoms: _95  and  _96
REMARK   43  A    between atoms: _95  and  _98
REMARK   44  A    between atoms: _98  and  _99
REMARK   45  A    between atoms: _102  and  _104
REMARK   46  A    between atoms: _104  and  _105
REMARK   47  A    between atoms: _104  and  _107
REMARK   48  A    between atoms: _109  and  _111
REMARK   49  A    between atoms: _111  and  _112
REMARK   50  A    between atoms: _115  and  _117
REMARK   51  A    between atoms: _117  and  _118
REMARK   52  A    between atoms: _117  and  _120
REMARK   53  A    between atoms: _123  and  _125
REMARK   54  A    between atoms: _125  and  _126
REMARK   55  A    between atoms: _125  and  _128
REMARK   56  A    between atoms: _128  and  _129
REMARK   57  A    between atoms: _129  and  _130
REMARK   58  A    between atoms: _130  and  _131
REMARK   59  A    between atoms: _131  and  _132
REMARK   60  A    between atoms: _136  and  _138
REMARK   61  A    between atoms: _138  and  _139
REMARK   62  A    between atoms: _138  and  _141
REMARK   63  A    between atoms: _144  and  _146
REMARK   64  A    between atoms: _146  and  _147
REMARK   65  A    between atoms: _146  and  _149
REMARK   66  A    between atoms: _149  and  _150
REMARK   67  A    between atoms: _153  and  _155
REMARK   68  A    between atoms: _155  and  _156
REMARK   69  A    between atoms: _155  and  _158
REMARK   70  A    between atoms: _158  and  _159
REMARK   71  A    between atoms: _162  and  _164
REMARK   72  A    between atoms: _164  and  _165
REMARK   73  A    between atoms: _164  and  _167
REMARK   74  A    between atoms: _167  and  _168
REMARK   75  A    between atoms: _168  and  _169
REMARK   76  A    between atoms: _171  and  _173
REMARK   77  A    between atoms: _173  and  _174
REMARK   78  A    between atoms: _173  and  _176
REMARK   79  A    between atoms: _176  and  _177
REMARK   80  A    between atoms: _177  and  _178
REMARK   81  A    between atoms: _178  and  _179
REMARK   82  A    between atoms: _179  and  _180
REMARK   83  A    between atoms: _184  and  _186
REMARK   84  A    between atoms: _186  and  _187
REMARK   85  A    between atoms: _186  and  _189
REMARK   86  A    between atoms: _189  and  _190
REMARK   87  A    between atoms: _193  and  _195
REMARK   88  A    between atoms: _195  and  _196
REMARK   89  A    between atoms: _195  and  _198
REMARK   90  A    between atoms: _198  and  _199
REMARK   91  A    between atoms: _204  and  _205
REMARK   92  A    between atoms: _207  and  _209
REMARK   93  A    between atoms: _209  and  _210
REMARK   94  A    between atoms: _209  and  _212
REMARK   95  A    between atoms: _212  and  _213
REMARK   96  A    between atoms: _213  and  _214
REMARK   97  A    between atoms: _217  and  _219
REMARK   98  A    between atoms: _219  and  _220
REMARK   99  A    between atoms: _219  and  _222
REMARK  100  A    between atoms: _222  and  _223
REMARK  101  A    between atoms: _228  and  _229
REMARK  102  A    between atoms: _231  and  _233
REMARK  103  A    between atoms: _233  and  _234
REMARK  104  A    between atoms: _233  and  _236
REMARK  105  A    between atoms: _236  and  _237
REMARK  106  A    between atoms: _240  and  _242
REMARK  107  A    between atoms: _242  and  _243
REMARK  108  A    between atoms: _242  and  _245
REMARK  109  A    between atoms: _248  and  _250
REMARK  110  A    between atoms: _250  and  _251
REMARK  111  A    between atoms: _253  and  _255
REMARK  112  A    between atoms: _255  and  _256
REMARK  113  A    between atoms: _255  and  _258
REMARK  114  A    between atoms: _258  and  _259
REMARK  115  A    between atoms: _259  and  _260
REMARK  116  A    between atoms: _263  and  _265
REMARK  117  A    between atoms: _265  and  _266
REMARK  118  A    between atoms: _265  and  _268
REMARK  119  A    between atoms: _271  and  _273
REMARK  120  A    between atoms: _273  and  _274
REMARK  121  A    between atoms: _273  and  _276
REMARK  122  A    between atoms: _276  and  _277
REMARK  123  A    between atoms: _282  and  _283
REMARK  124  A    between atoms: _285  and  _287
REMARK  125  A    between atoms: _287  and  _288
REMARK  126  A    between atoms: _287  and  _290
REMARK  127  A    between atoms: _290  and  _291
REMARK  128  A    between atoms: _294  and  _296
REMARK  129  A    between atoms: _296  and  _297
REMARK  130  A    between atoms: _299  and  _301
REMARK  131  A    between atoms: _301  and  _302
REMARK  132  A    between atoms: _304  and  _306
REMARK  133  A    between atoms: _306  and  _307
REMARK  134  A    between atoms: _306  and  _309
REMARK  135  A    between atoms: _309  and  _310
REMARK  136  A    between atoms: _310  and  _311
REMARK  137  A    between atoms: _314  and  _316
REMARK  138  A    between atoms: _316  and  _317
REMARK  139  A    between atoms: _316  and  _319
REMARK  140  A    between atoms: _319  and  _320
REMARK  141  A    between atoms: _323  and  _325
REMARK  142  A    between atoms: _325  and  _326
REMARK  143  A    between atoms: _325  and  _328
REMARK  144  A    between atoms: _328  and  _329
REMARK  145  A    between atoms: _333  and  _334
REMARK  146  A    between atoms: _339  and  _341
REMARK  147  A    between atoms: _341  and  _342
REMARK  148  A    between atoms: _341  and  _344
REMARK  149  A    between atoms: _344  and  _345
REMARK  150  A    between atoms: _345  and  _346
REMARK  151  A    between atoms: _349  and  _351
REMARK  152  A    between atoms: _351  and  _352
REMARK  153  A    between atoms: _351  and  _354
REMARK  154  A    between atoms: _354  and  _355
REMARK  155  A    between atoms: _360  and  _362
REMARK  156  A    between atoms: _362  and  _363
REMARK  157  A    between atoms: _362  and  _365
REMARK  158  A    between atoms: _365  and  _366
REMARK  159  A    between atoms: _369  and  _371
REMARK  160  A    between atoms: _371  and  _372
REMARK  161  A    between atoms: _371  and  _374
REMARK  162  A    between atoms: _374  and  _375
REMARK  163  A    between atoms: _378  and  _380
REMARK  164  A    between atoms: _380  and  _381
REMARK  165  A    between atoms: _380  and  _383
REMARK  166  A    between atoms: _383  and  _384
REMARK  167  A    between atoms: _387  and  _389
REMARK  168  A    between atoms: _389  and  _390
REMARK  169  A    between atoms: _389  and  _392
REMARK  170  A    between atoms: _392  and  _393
REMARK  171  A    between atoms: _393  and  _394
REMARK  172  A    between atoms: _397  and  _399
REMARK  173  A    between atoms: _399  and  _400
REMARK  174  A    between atoms: _399  and  _402
REMARK  175  A    between atoms: _402  and  _403
REMARK  176  A    between atoms: _403  and  _404
REMARK  177  A    between atoms: _404  and  _405
REMARK  178  A    between atoms: _414  and  _416
REMARK  179  A    between atoms: _416  and  _417
REMARK  180  A    between atoms: _416  and  _419
REMARK  181  A    between atoms: _419  and  _420
REMARK  182  A    between atoms: _423  and  _425
REMARK  183  A    between atoms: _425  and  _426
REMARK  184  A    between atoms: _425  and  _428
REMARK  185  A    between atoms: _428  and  _429
REMARK  186  A    between atoms: _432  and  _434
REMARK  187  A    between atoms: _434  and  _435
REMARK  188  A    between atoms: _434  and  _437
REMARK  189  A    between atoms: _437  and  _438
REMARK  190  A    between atoms: _441  and  _443
REMARK  191  A    between atoms: _443  and  _444
REMARK  192  A    between atoms: _443  and  _446
REMARK  193  A    between atoms: _446  and  _447
REMARK  194  A    between atoms: _453  and  _455
REMARK  195  A    between atoms: _455  and  _456
REMARK  196  A    between atoms: _458  and  _460
REMARK  197  A    between atoms: _460  and  _461
REMARK  198  A    between atoms: _460  and  _463
REMARK  199  A    between atoms: _463  and  _464
REMARK  200  A    between atoms: _467  and  _469
REMARK  201  A    between atoms: _469  and  _470
REMARK  202  A    between atoms: _469  and  _472
REMARK  203  A    between atoms: _472  and  _473
REMARK  204  A    between atoms: _479  and  _481
REMARK  205  A    between atoms: _481  and  _482
REMARK  206  A    between atoms: _481  and  _484
REMARK  207  A    between atoms: _484  and  _485
REMARK  208  A    between atoms: _485  and  _486
REMARK  209  A    between atoms: _486  and  _487
REMARK  210  A    between atoms: _487  and  _488
REMARK  211  A    between atoms: _492  and  _494
REMARK  212  A    between atoms: _494  and  _495
REMARK  213  A    between atoms: _494  and  _497
REMARK  214  A    between atoms: _497  and  _498
REMARK  215  A    between atoms: _498  and  _499
REMARK                            x       y       z     vdW  Elec       q    Type
REMARK                         _______ _______ _______ _____ _____    ______ ____
ROOT
ATOM      1  CA  LEU A   4      23.517  13.794  21.456  0.00  0.00    +0.149 C 
ENDROOT
BRANCH   1   4
ATOM      2  C   ASN A   3      22.305  15.318  22.947  0.00  0.00    +0.241 C 
ATOM      3  O   ASN A   3      21.534  14.441  23.355  0.00  0.00    -0.273 OA
ATOM      4  N   LEU A   4      23.272  15.090  22.067  0.00  0.00    -0.297 N 
ATOM      5  H   LEU A   4      23.889  15.883  21.800  0.00  0.00    +0.150 HD
BRANCH   2   6
ATOM      6  CA  ASN A   3      22.221  16.754  23.484  0.00  0.00    +0.158 C 
BRANCH   6   9
ATOM      7  C   GLU A   2      24.336  17.994  23.226  0.00  0.00    +0.241 C 
ATOM      8  O   GLU A   2      24.801  17.567  24.290  0.00  0.00    -0.273 OA
ATOM      9  N   ASN A   3      23.114  17.684  22.789  0.00  0.00    -0.297 N 
ATOM     10  H   ASN A   3      22.778  18.126  21.909  0.00  0.00    +0.150 HD
BRANCH   7  11
ATOM     11  CA  GLU A   2      25.157  18.959  22.343  0.00  0.00    +0.149 C 
BRANCH  11  13
ATOM     12  C   PRO A   1      24.739  17.964  20.130  0.00  0.00    +0.239 C 
ATOM     13  N   GLU A   2      24.699  19.011  20.949  0.00  0.00    -0.297 N 
ATOM     14  H   GLU A   2      24.325  19.910  20.584  0.00  0.00    +0.150 HD
ATOM     15  O   PRO A   1      25.175  16.860  20.467  0.00  0.00    -0.274 OA
BRANCH  12  17
ATOM     16  N   PRO A   1      23.031  19.094  18.638  0.00  0.00    -0.210 NA
ATOM     17  CA  PRO A   1      24.194  18.186  18.712  0.00  0.00    +0.149 C 
ATOM     18  CB  PRO A   1      25.234  18.899  17.841  0.00  0.00    +0.028 C 
ATOM     19  CG  PRO A   1      24.427  19.664  16.845  0.00  0.00    +0.021 C 
ATOM     20  CD  PRO A   1      23.222  20.136  17.604  0.00  0.00    +0.089 C 
ENDBRANCH  12  17
ENDBRANCH  11  13
BRANCH  11  21
ATOM     21  CB  GLU A   2      25.097  20.380  22.908  0.00  0.00    +0.041 C 
BRANCH  21  22
ATOM     22  CG  GLU A   2      25.733  20.593  24.259  0.00  0.00    +0.116 C 
BRANCH  22  23
ATOM     23  CD  GLU A   2      25.795  22.067  24.605  0.00  0.00    +0.365 C 
ATOM     24  OE2 GLU A   2      25.087  22.496  25.548  0.00  0.00    -0.246 OA
ATOM     25  OE1 GLU A   2      26.537  22.796  23.909  0.00  0.00    -0.246 OA
ENDBRANCH  22  23
ENDBRANCH  21  22
ENDBRANCH  11  21
ENDBRANCH   7  11
ENDBRANCH   6   9
BRANCH   6  26
ATOM     26  CB  ASN A   3      20.781  17.279  23.418  0.00  0.00    +0.114 C 
BRANCH  26  27
ATOM     27  CG  ASN A   3      20.507  18.347  24.457  0.00  0.00    +0.222 C 
ATOM     28  OD1 ASN A   3      21.125  18.364  25.518  0.00  0.00    -0.275 OA
ATOM     29  ND2 ASN A   3      19.584  19.235  24.162  0.00  0.00    -0.329 N 
ATOM     30 HD21 ASN A   3      19.353  19.989  24.839  0.00  0.00    +0.145 HD
ATOM     31 HD22 ASN A   3      19.085  19.183  23.251  0.00  0.00    +0.145 HD
ENDBRANCH  26  27
ENDBRANCH   6  26
ENDBRANCH   2   6
ENDBRANCH   1   4
BRANCH   1  32
ATOM     32  C   LEU A   4      24.845  13.252  21.931  0.00  0.00    +0.241 C 
ATOM     33  N   LEU A   5      24.768  12.303  22.863  0.00  0.00    -0.297 N 
ATOM     34  H   LEU A   5      23.828  11.961  23.147  0.00  0.00    +0.150 HD
ATOM     35  O   LEU A   4      25.912  13.681  21.468  0.00  0.00    -0.273 OA
BRANCH  33  36
ATOM     36  CA  LEU A   5      25.942  11.722  23.502  0.00  0.00    +0.149 C 
BRANCH  36  37
ATOM     37  C   LEU A   5      26.213  10.365  22.887  0.00  0.00    +0.241 C 
ATOM     38  N   LEU A   6      27.480   9.960  22.885  0.00  0.00    -0.297 N 
ATOM     39  H   LEU A   6      28.213  10.615  23.224  0.00  0.00    +0.150 HD
ATOM     40  O   LEU A   5      25.292   9.708  22.422  0.00  0.00    -0.273 OA
BRANCH  38  41
ATOM     41  CA  LEU A   6      27.882   8.639  22.429  0.00  0.00    +0.149 C 
BRANCH  41  42
ATOM     42  C   LEU A   6      28.043   7.763  23.666  0.00  0.00    +0.241 C 
ATOM     43  O   LEU A   6      28.636   8.183  24.662  0.00  0.00    -0.273 OA
ATOM     44  N   GLU A   7      27.505   6.551  23.594  0.00  0.00    -0.298 N 
ATOM     45  H   GLU A   7      27.202   6.190  22.667  0.00  0.00    +0.150 HD
BRANCH  44  46
ATOM     46  CA  GLU A   7      27.324   5.707  24.773  0.00  0.00    +0.137 C 
BRANCH  46  47
ATOM     47  C   GLU A   7      28.636   5.402  25.465  0.00  0.00    +0.227 C 
ATOM     48  O   GLU A   7      28.711   5.418  26.694  0.00  0.00    -0.286 OA
ENDBRANCH  46  47
BRANCH  46  49
ATOM     49  CB  GLU A   7      26.641   4.404  24.387  0.00  0.00    +0.039 C 
BRANCH  49  50
ATOM     50  CG  GLU A   7      26.163   3.591  25.575  0.00  0.00    +0.116 C 
BRANCH  50  51
ATOM     51  CD  GLU A   7      25.167   2.531  25.173  0.00  0.00    +0.365 C 
ATOM     52  OE2 GLU A   7      25.360   1.356  25.544  0.00  0.00    -0.246 OA
ATOM     53  OE1 GLU A   7      24.203   2.874  24.470  0.00  0.00    -0.246 OA
ENDBRANCH  50  51
ENDBRANCH  49  50
ENDBRANCH  46  49
ENDBRANCH  44  46
ENDBRANCH  41  42
BRANCH  41  54
ATOM     54  CB  LEU A   6      29.191   8.706  21.633  0.00  0.00    +0.029 C 
BRANCH  54  55
ATOM     55  CG  LEU A   6      29.131   9.354  20.243  0.00  0.00    +0.002 C 
ATOM     56  CD2 LEU A   6      30.542   9.576  19.721  0.00  0.00    +0.000 C 
ATOM     57  CD1 LEU A   6      28.326   8.511  19.261  0.00  0.00    +0.000 C 
ENDBRANCH  54  55
ENDBRANCH  41  54
ENDBRANCH  38  41
ENDBRANCH  36  37
BRANCH  36  58
ATOM     58  CB  LEU A   5      25.707  11.568  25.011  0.00  0.00    +0.029 C 
BRANCH  58  59
ATOM     59  CG  LEU A   5      25.593  12.867  25.806  0.00  0.00    +0.002 C 
ATOM     60  CD2 LEU A   5      25.632  12.561  27.293  0.00  0.00    +0.000 C 
ATOM     61  CD1 LEU A   5      26.706  13.853  25.443  0.00  0.00    +0.000 C 
ENDBRANCH  58  59
ENDBRANCH  36  58
ENDBRANCH  33  36
ENDBRANCH   1  32
BRANCH   1  62
ATOM     62  CB  LEU A   4      23.532  13.911  19.933  0.00  0.00    +0.029 C 
BRANCH  62  63
ATOM     63  CG  LEU A   4      22.282  14.491  19.280  0.00  0.00    +0.002 C 
ATOM     64  CD2 LEU A   4      21.035  13.702  19.661  0.00  0.00    +0.000 C 
ATOM     65  CD1 LEU A   4      22.492  14.512  17.764  0.00  0.00    +0.000 C 
ENDBRANCH  62  63
ENDBRANCH   1  62
TORSDOF 27
REMARK  Name = ../refined-set-2016/3v5p/3v5p_pocket.pdb
REMARK  215 active torsions:
REMARK  status: ('A' for Active; 'I' for Inactive)
REMARK    1  A    between atoms: _1  and  _3
REMARK    2  A    between atoms: _3  and  _4
REMARK    3  A    between atoms: _3  and  _6
REMARK    4  A    between atoms: _9  and  _11
REMARK    5  A    between atoms: _11  and  _12
REMARK    6  A    between atoms: _11  and  _14
REMARK    7  A    between atoms: _14  and  _15
REMARK    8  A    between atoms: _18  and  _20
REMARK    9  A    between atoms: _20  and  _21
REMARK   10  A    between atoms: _23  and  _25
REMARK   11  A    between atoms: _25  and  _26
REMARK   12  A    between atoms: _25  and  _28
REMARK   13  A    between atoms: _28  and  _29
REMARK   14  A    between atoms: _29  and  _30
REMARK   15  A    between atoms: _30  and  _31
REMARK   16  A    between atoms: _31  and  _32
REMARK   17  A    between atoms: _36  and  _38
REMARK   18  A    between atoms: _38  and  _39
REMARK   19  A    between atoms: _41  and  _43
REMARK   20  A    between atoms: _43  and  _44
REMARK   21  A    between atoms: _43  and  _46
REMARK   22  A    between atoms: _46  and  _47
REMARK   23  A    between atoms: _49  and  _51
REMARK   24  A    between atoms: _51  and  _52
REMARK   25  A    between atoms: _51  and  _54
REMARK   26  A    between atoms: _54  and  _55
REMARK   27  A    between atoms: _61  and  _63
REMARK   28  A    between atoms: _63  and  _64
REMARK   29  A    between atoms: _66  and  _68
REMARK   30  A    between atoms: _68  and  _69
REMARK   31  A    between atoms: _68  and  _71
REMARK   32  A    between atoms: _71  and  _72
REMARK   33  A    between atoms: _72  and  _73
REMARK   34  A    between atoms: _76  and  _78
REMARK   35  A    between atoms: _78  and  _79
REMARK   36  A    between atoms: _78  and  _81
REMARK   37  A    between atoms: _84  and  _86
REMARK   38  A    between atoms: _86  and  _87
REMARK   39  A    between atoms: _86  and  _89
REMARK   40  A    between atoms: _89  and  _90
REMARK   41  A    between atoms: _93  and  _95
REMARK   42  A    between atoms: _95  and  _96
REMARK   43  A    between atoms: _95  and  _98
REMARK   44  A    between atoms: _98  and  _99
REMARK   45  A    between atoms: _102  and  _104
REMARK   46  A    between atoms: _104  and  _105
REMARK   47  A    between atoms: _104  and  _107
REMARK   48  A    between atoms: _109  and  _111
REMARK   49  A    between atoms: _111  and  _112
REMARK   50  A    between atoms: _115  and  _117
REMARK   51  A    between atoms: _117  and  _118
REMARK   52  A    between atoms: _117  and  _120
REMARK   53  A    between atoms: _123  and  _125
REMARK   54  A    between atoms: _125  and  _126
REMARK   55  A    between atoms: _125  and  _128
REMARK   56  A    between atoms: _128  and  _129
REMARK   57  A    between atoms: _129  and  _130
REMARK   58  A    between atoms: _130  and  _131
REMARK   59  A    between atoms: _131  and  _132
REMARK   60  A    between atoms: _136  and  _138
REMARK   61  A    between atoms: _138  and  _139
REMARK   62  A    between atoms: _138  and  _141
REMARK   63  A    between atoms: _144  and  _146
REMARK   64  A    between atoms: _146  and  _147
REMARK   65  A    between atoms: _146  and  _149
REMARK   66  A    between atoms: _149  and  _150
REMARK   67  A    between atoms: _153  and  _155
REMARK   68  A    between atoms: _155  and  _156
REMARK   69  A    between atoms: _155  and  _158
REMARK   70  A    between atoms: _158  and  _159
REMARK   71  A    between atoms: _162  and  _164
REMARK   72  A    between atoms: _164  and  _165
REMARK   73  A    between atoms: _164  and  _167
REMARK   74  A    between atoms: _167  and  _168
REMARK   75  A    between atoms: _168  and  _169
REMARK   76  A    between atoms: _171  and  _173
REMARK   77  A    between atoms: _173  and  _174
REMARK   78  A    between atoms: _173  and  _176
REMARK   79  A    between atoms: _176  and  _177
REMARK   80  A    between atoms: _177  and  _178
REMARK   81  A    between atoms: _178  and  _179
REMARK   82  A    between atoms: _179  and  _180
REMARK   83  A    between atoms: _184  and  _186
REMARK   84  A    between atoms: _186  and  _187
REMARK   85  A    between atoms: _186  and  _189
REMARK   86  A    between atoms: _189  and  _190
REMARK   87  A    between atoms: _193  and  _195
REMARK   88  A    between atoms: _195  and  _196
REMARK   89  A    between atoms: _195  and  _198
REMARK   90  A    between atoms: _198  and  _199
REMARK   91  A    between atoms: _204  and  _205
REMARK   92  A    between atoms: _207  and  _209
REMARK   93  A    between atoms: _209  and  _210
REMARK   94  A    between atoms: _209  and  _212
REMARK   95  A    between atoms: _212  and  _213
REMARK   96  A    between atoms: _213  and  _214
REMARK   97  A    between atoms: _217  and  _219
REMARK   98  A    between atoms: _219  and  _220
REMARK   99  A    between atoms: _219  and  _222
REMARK  100  A    between atoms: _222  and  _223
REMARK  101  A    between atoms: _228  and  _229
REMARK  102  A    between atoms: _231  and  _233
REMARK  103  A    between atoms: _233  and  _234
REMARK  104  A    between atoms: _233  and  _236
REMARK  105  A    between atoms: _236  and  _237
REMARK  106  A    between atoms: _240  and  _242
REMARK  107  A    between atoms: _242  and  _243
REMARK  108  A    between atoms: _242  and  _245
REMARK  109  A    between atoms: _248  and  _250
REMARK  110  A    between atoms: _250  and  _251
REMARK  111  A    between atoms: _253  and  _255
REMARK  112  A    between atoms: _255  and  _256
REMARK  113  A    between atoms: _255  and  _258
REMARK  114  A    between atoms: _258  and  _259
REMARK  115  A    between atoms: _259  and  _260
REMARK  116  A    between atoms: _263  and  _265
REMARK  117  A    between atoms: _265  and  _266
REMARK  118  A    between atoms: _265  and  _268
REMARK  119  A    between atoms: _271  and  _273
REMARK  120  A    between atoms: _273  and  _274
REMARK  121  A    between atoms: _273  and  _276
REMARK  122  A    between atoms: _276  and  _277
REMARK  123  A    between atoms: _282  and  _283
REMARK  124  A    between atoms: _285  and  _287
REMARK  125  A    between atoms: _287  and  _288
REMARK  126  A    between atoms: _287  and  _290
REMARK  127  A    between atoms: _290  and  _291
REMARK  128  A    between atoms: _294  and  _296
REMARK  129  A    between atoms: _296  and  _297
REMARK  130  A    between atoms: _299  and  _301
REMARK  131  A    between atoms: _301  and  _302
REMARK  132  A    between atoms: _304  and  _306
REMARK  133  A    between atoms: _306  and  _307
REMARK  134  A    between atoms: _306  and  _309
REMARK  135  A    between atoms: _309  and  _310
REMARK  136  A    between atoms: _310  and  _311
REMARK  137  A    between atoms: _314  and  _316
REMARK  138  A    between atoms: _316  and  _317
REMARK  139  A    between atoms: _316  and  _319
REMARK  140  A    between atoms: _319  and  _320
REMARK  141  A    between atoms: _323  and  _325
REMARK  142  A    between atoms: _325  and  _326
REMARK  143  A    between atoms: _325  and  _328
REMARK  144  A    between atoms: _328  and  _329
REMARK  145  A    between atoms: _333  and  _334
REMARK  146  A    between atoms: _339  and  _341
REMARK  147  A    between atoms: _341  and  _342
REMARK  148  A    between atoms: _341  and  _344
REMARK  149  A    between atoms: _344  and  _345
REMARK  150  A    between atoms: _345  and  _346
REMARK  151  A    between atoms: _349  and  _351
REMARK  152  A    between atoms: _351  and  _352
REMARK  153  A    between atoms: _351  and  _354
REMARK  154  A    between atoms: _354  and  _355
REMARK  155  A    between atoms: _360  and  _362
REMARK  156  A    between atoms: _362  and  _363
REMARK  157  A    between atoms: _362  and  _365
REMARK  158  A    between atoms: _365  and  _366
REMARK  159  A    between atoms: _369  and  _371
REMARK  160  A    between atoms: _371  and  _372
REMARK  161  A    between atoms: _371  and  _374
REMARK  162  A    between atoms: _374  and  _375
REMARK  163  A    between atoms: _378  and  _380
REMARK  164  A    between atoms: _380  and  _381
REMARK  165  A    between atoms: _380  and  _383
REMARK  166  A    between atoms: _383  and  _384
REMARK  167  A    between atoms: _387  and  _389
REMARK  168  A    between atoms: _389  and  _390
REMARK  169  A    between atoms: _389  and  _392
REMARK  170  A    between atoms: _392  and  _393
REMARK  171  A    between atoms: _393  and  _394
REMARK  172  A    between atoms: _397  and  _399
REMARK  173  A    between atoms: _399  and  _400
REMARK  174  A    between atoms: _399  and  _402
REMARK  175  A    between atoms: _402  and  _403
REMARK  176  A    between atoms: _403  and  _404
REMARK  177  A    between atoms: _404  and  _405
REMARK  178  A    between atoms: _414  and  _416
REMARK  179  A    between atoms: _416  and  _417
REMARK  180  A    between atoms: _416  and  _419
REMARK  181  A    between atoms: _419  and  _420
REMARK  182  A    between atoms: _423  and  _425
REMARK  183  A    between atoms: _425  and  _426
REMARK  184  A    between atoms: _425  and  _428
REMARK  185  A    between atoms: _428  and  _429
REMARK  186  A    between atoms: _432  and  _434
REMARK  187  A    between atoms: _434  and  _435
REMARK  188  A    between atoms: _434  and  _437
REMARK  189  A    between atoms: _437  and  _438
REMARK  190  A    between atoms: _441  and  _443
REMARK  191  A    between atoms: _443  and  _444
REMARK  192  A    between atoms: _443  and  _446
REMARK  193  A    between atoms: _446  and  _447
REMARK  194  A    between atoms: _453  and  _455
REMARK  195  A    between atoms: _455  and  _456
REMARK  196  A    between atoms: _458  and  _460
REMARK  197  A    between atoms: _460  and  _461
REMARK  198  A    between atoms: _460  and  _463
REMARK  199  A    between atoms: _463  and  _464
REMARK  200  A    between atoms: _467  and  _469
REMARK  201  A    between atoms: _469  and  _470
REMARK  202  A    between atoms: _469  and  _472
REMARK  203  A    between atoms: _472  and  _473
REMARK  204  A    between atoms: _479  and  _481
REMARK  205  A    between atoms: _481  and  _482
REMARK  206  A    between atoms: _481  and  _484
REMARK  207  A    between atoms: _484  and  _485
REMARK  208  A    between atoms: _485  and  _486
REMARK  209  A    between atoms: _486  and  _487
REMARK  210  A    between atoms: _487  and  _488
REMARK  211  A    between atoms: _492  and  _494
REMARK  212  A    between atoms: _494  and  _495
REMARK  213  A    between atoms: _494  and  _497
REMARK  214  A    between atoms: _497  and  _498
REMARK  215  A    between atoms: _498  and  _499
REMARK                            x       y       z     vdW  Elec       q    Type
REMARK                         _______ _______ _______ _____ _____    ______ ____
ROOT
ATOM      1  C   ILE A   3      18.779  14.789  26.707  0.00  0.00    +0.241 C 
ATOM      2  N   ASP A   4      18.153  14.978  27.866  0.00  0.00    -0.297 N 
ATOM      3  H   ASP A   4      18.333  14.297  28.631  0.00  0.00    +0.150 HD
ATOM      4  O   ILE A   3      18.547  15.447  25.682  0.00  0.00    -0.273 OA
ENDROOT
BRANCH   2   5
ATOM      5  CA  ASP A   4      17.222  16.088  28.137  0.00  0.00    +0.160 C 
BRANCH   5   6
ATOM      6  C   ASP A   4      15.772  16.006  27.581  0.00  0.00    +0.241 C 
ATOM      7  O   ASP A   4      15.037  16.983  27.655  0.00  0.00    -0.273 OA
ATOM      8  N   PHE A   5      15.324  14.852  27.090  0.00  0.00    -0.297 N 
ATOM      9  H   PHE A   5      15.970  14.045  26.977  0.00  0.00    +0.150 HD
BRANCH   8  10
ATOM     10  CA  PHE A   5      13.910  14.728  26.709  0.00  0.00    +0.153 C 
BRANCH  10  11
ATOM     11  C   PHE A   5      13.006  15.037  27.902  0.00  0.00    +0.241 C 
ATOM     12  O   PHE A   5      13.237  14.541  28.993  0.00  0.00    -0.273 OA
ATOM     13  N   GLY A   6      12.015  15.901  27.693  0.00  0.00    -0.295 N 
ATOM     14  H   GLY A   6      11.967  16.397  26.780  0.00  0.00    +0.150 HD
BRANCH  13  15
ATOM     15  CA  GLY A   6      10.993  16.178  28.697  0.00  0.00    +0.176 C 
BRANCH  15  16
ATOM     16  C   GLY A   6      11.248  17.366  29.610  0.00  0.00    +0.243 C 
ATOM     17  O   GLY A   6      10.310  17.915  30.172  0.00  0.00    -0.273 OA
ATOM     18  N   LEU A   7      12.502  17.780  29.753  0.00  0.00    -0.298 N 
ATOM     19  H   LEU A   7      13.253  17.348  29.177  0.00  0.00    +0.150 HD
BRANCH  18  20
ATOM     20  CA  LEU A   7      12.843  18.833  30.706  0.00  0.00    +0.137 C 
BRANCH  20  21
ATOM     21  C   LEU A   7      12.310  20.208  30.320  0.00  0.00    +0.227 C 
ATOM     22  O   LEU A   7      11.942  20.983  31.203  0.00  0.00    -0.286 OA
ENDBRANCH  20  21
BRANCH  20  23
ATOM     23  CB  LEU A   7      14.358  18.914  30.904  0.00  0.00    +0.028 C 
BRANCH  23  24
ATOM     24  CG  LEU A   7      15.018  17.730  31.619  0.00  0.00    +0.002 C 
ATOM     25  CD2 LEU A   7      14.350  17.433  32.951  0.00  0.00    +0.000 C 
ATOM     26  CD1 LEU A   7      16.493  18.035  31.822  0.00  0.00    +0.000 C 
ENDBRANCH  23  24
ENDBRANCH  20  23
ENDBRANCH  18  20
ENDBRANCH  15  16
ENDBRANCH  13  15
ENDBRANCH  10  11
BRANCH  10  27
ATOM     27  CB  PHE A   5      13.578  13.338  26.162  0.00  0.00    +0.055 C 
BRANCH  27  28
ATOM     28  CG  PHE A   5      13.244  13.322  24.692  0.00  0.00    -0.020 A 
ATOM     29  CD2 PHE A   5      11.980  13.692  24.256  0.00  0.00    -0.004 A 
ATOM     30  CE2 PHE A   5      11.660  13.668  22.906  0.00  0.00    -0.000 A 
ATOM     31  CZ  PHE A   5      12.600  13.256  21.984  0.00  0.00    -0.000 A 
ATOM     32  CE1 PHE A   5      13.859  12.877  22.411  0.00  0.00    -0.000 A 
ATOM     33  CD1 PHE A   5      14.169  12.899  23.760  0.00  0.00    -0.004 A 
ENDBRANCH  27  28
ENDBRANCH  10  27
ENDBRANCH   8  10
ENDBRANCH   5   6
BRANCH   5  34
ATOM     34  CB  ASP A   4      17.884  17.440  27.783  0.00  0.00    +0.143 C 
BRANCH  34  35
ATOM     35  CG  ASP A   4      18.926  17.886  28.831  0.00  0.00    +0.367 C 
ATOM     36  OD2 ASP A   4      19.091  17.201  29.864  0.00  0.00    -0.246 OA
ATOM     37  OD1 ASP A   4      19.570  18.939  28.626  0.00  0.00    -0.246 OA
ENDBRANCH  34  35
ENDBRANCH   5  34
ENDBRANCH   2   5
BRANCH   1  38
ATOM     38  CA  ILE A   3      19.787  13.641  26.692  0.00  0.00    +0.149 C 
BRANCH  38  41
ATOM     39  C   ILE A   2      19.481  12.021  24.912  0.00  0.00    +0.241 C 
ATOM     40  O   ILE A   2      18.903  11.246  25.663  0.00  0.00    -0.273 OA
ATOM     41  N   ILE A   3      19.998  13.169  25.335  0.00  0.00    -0.297 N 
ATOM     42  H   ILE A   3      20.567  13.743  24.680  0.00  0.00    +0.150 HD
BRANCH  39  43
ATOM     43  CA  ILE A   2      19.685  11.662  23.434  0.00  0.00    +0.148 C 
BRANCH  43  46
ATOM     44  C   ARG A   1      21.504  10.044  23.609  0.00  0.00    +0.238 C 
ATOM     45  O   ARG A   1      22.312  10.921  23.892  0.00  0.00    -0.274 OA
ATOM     46  N   ILE A   2      20.218  10.300  23.384  0.00  0.00    -0.297 N 
ATOM     47  H   ILE A   2      19.575   9.512  23.167  0.00  0.00    +0.150 HD
BRANCH  44  48
ATOM     48  CA  ARG A   1      21.954   8.589  23.509  0.00  0.00    +0.145 C 
BRANCH  48  49
ATOM     49  N   ARG A   1      22.929   8.459  22.432  0.00  0.00    -0.238 NA
ATOM     50  H   ARG A   1      23.763   9.081  22.437  0.00  0.00    +0.142 HD
ENDBRANCH  48  49
BRANCH  48  51
ATOM     51  CB  ARG A   1      22.579   8.169  24.831  0.00  0.00    +0.030 C 
BRANCH  51  52
ATOM     52  CG  ARG A   1      22.851   6.681  24.944  0.00  0.00    +0.045 C 
BRANCH  52  53
ATOM     53  CD  ARG A   1      21.649   5.940  25.494  0.00  0.00    +0.174 C 
BRANCH  53  54
ATOM     54  NE  ARG A   1      21.935   4.536  25.748  0.00  0.00    -0.265 N 
ATOM     55  CZ  ARG A   1      21.053   3.661  26.233  0.00  0.00    +0.342 C 
ATOM     56  NH2 ARG A   1      19.818   4.041  26.550  0.00  0.00    -0.292 N 
ATOM     57 HH21 ARG A   1      19.141   3.347  26.927  0.00  0.00    +0.255 HD
ATOM     58 HH22 ARG A   1      19.529   5.032  26.421  0.00  0.00    +0.255 HD
ATOM     59  NH1 ARG A   1      21.414   2.396  26.414  0.00  0.00    -0.292 N 
ATOM     60 HH11 ARG A   1      20.731   1.709  26.792  0.00  0.00    +0.255 HD
ATOM     61 HH12 ARG A   1      22.380   2.092  26.178  0.00  0.00    +0.255 HD
ATOM     62  HE  ARG A   1      22.893   4.191  25.537  0.00  0.00    +0.259 HD
ENDBRANCH  53  54
ENDBRANCH  52  53
ENDBRANCH  51  52
ENDBRANCH  48  51
ENDBRANCH  44  48
ENDBRANCH  43  46
BRANCH  43  63
ATOM     63  CB  ILE A   2      18.349  11.799  22.654  0.00  0.00    +0.027 C 
ATOM     64  CG2 ILE A   2      17.896  13.257  22.616  0.00  0.00    +0.002 C 
BRANCH  63  65
ATOM     65  CG1 ILE A   2      18.472  11.298  21.211  0.00  0.00    +0.002 C 
ATOM     66  CD1 ILE A   2      17.144  11.210  20.478  0.00  0.00    +0.000 C 
ENDBRANCH  63  65
ENDBRANCH  43  63
ENDBRANCH  39  43
ENDBRANCH  38  41
BRANCH  38  67
ATOM     67  CB  ILE A   3      21.108  14.031  27.409  0.00  0.00    +0.027 C 
ATOM     68  CG2 ILE A   3      21.957  12.791  27.643  0.00  0.00    +0.002 C 
BRANCH  67  69
ATOM     69  CG1 ILE A   3      21.900  15.069  26.620  0.00  0.00    +0.002 C 
ATOM     70  CD1 ILE A   3      23.000  15.752  27.399  0.00  0.00    +0.000 C 
ENDBRANCH  67  69
ENDBRANCH  38  67
ENDBRANCH   1  38
TORSDOF 28
REMARK  Name = ../refined-set-2016/3v5p/3v5p_pocket.pdb
REMARK  215 active torsions:
REMARK  status: ('A' for Active; 'I' for Inactive)
REMARK    1  A    between atoms: _1  and  _3
REMARK    2  A    between atoms: _3  and  _4
REMARK    3  A    between atoms: _3  and  _6
REMARK    4  A    between atoms: _9  and  _11
REMARK    5  A    between atoms: _11  and  _12
REMARK    6  A    between atoms: _11  and  _14
REMARK    7  A    between atoms: _14  and  _15
REMARK    8  A    between atoms: _18  and  _20
REMARK    9  A    between atoms: _20  and  _21
REMARK   10  A    between atoms: _23  and  _25
REMARK   11  A    between atoms: _25  and  _26
REMARK   12  A    between atoms: _25  and  _28
REMARK   13  A    between atoms: _28  and  _29
REMARK   14  A    between atoms: _29  and  _30
REMARK   15  A    between atoms: _30  and  _31
REMARK   16  A    between atoms: _31  and  _32
REMARK   17  A    between atoms: _36  and  _38
REMARK   18  A    between atoms: _38  and  _39
REMARK   19  A    between atoms: _41  and  _43
REMARK   20  A    between atoms: _43  and  _44
REMARK   21  A    between atoms: _43  and  _46
REMARK   22  A    between atoms: _46  and  _47
REMARK   23  A    between atoms: _49  and  _51
REMARK   24  A    between atoms: _51  and  _52
REMARK   25  A    between atoms: _51  and  _54
REMARK   26  A    between atoms: _54  and  _55
REMARK   27  A    between atoms: _61  and  _63
REMARK   28  A    between atoms: _63  and  _64
REMARK   29  A    between atoms: _66  and  _68
REMARK   30  A    between atoms: _68  and  _69
REMARK   31  A    between atoms: _68  and  _71
REMARK   32  A    between atoms: _71  and  _72
REMARK   33  A    between atoms: _72  and  _73
REMARK   34  A    between atoms: _76  and  _78
REMARK   35  A    between atoms: _78  and  _79
REMARK   36  A    between atoms: _78  and  _81
REMARK   37  A    between atoms: _84  and  _86
REMARK   38  A    between atoms: _86  and  _87
REMARK   39  A    between atoms: _86  and  _89
REMARK   40  A    between atoms: _89  and  _90
REMARK   41  A    between atoms: _93  and  _95
REMARK   42  A    between atoms: _95  and  _96
REMARK   43  A    between atoms: _95  and  _98
REMARK   44  A    between atoms: _98  and  _99
REMARK   45  A    between atoms: _102  and  _104
REMARK   46  A    between atoms: _104  and  _105
REMARK   47  A    between atoms: _104  and  _107
REMARK   48  A    between atoms: _109  and  _111
REMARK   49  A    between atoms: _111  and  _112
REMARK   50  A    between atoms: _115  and  _117
REMARK   51  A    between atoms: _117  and  _118
REMARK   52  A    between atoms: _117  and  _120
REMARK   53  A    between atoms: _123  and  _125
REMARK   54  A    between atoms: _125  and  _126
REMARK   55  A    between atoms: _125  and  _128
REMARK   56  A    between atoms: _128  and  _129
REMARK   57  A    between atoms: _129  and  _130
REMARK   58  A    between atoms: _130  and  _131
REMARK   59  A    between atoms: _131  and  _132
REMARK   60  A    between atoms: _136  and  _138
REMARK   61  A    between atoms: _138  and  _139
REMARK   62  A    between atoms: _138  and  _141
REMARK   63  A    between atoms: _144  and  _146
REMARK   64  A    between atoms: _146  and  _147
REMARK   65  A    between atoms: _146  and  _149
REMARK   66  A    between atoms: _149  and  _150
REMARK   67  A    between atoms: _153  and  _155
REMARK   68  A    between atoms: _155  and  _156
REMARK   69  A    between atoms: _155  and  _158
REMARK   70  A    between atoms: _158  and  _159
REMARK   71  A    between atoms: _162  and  _164
REMARK   72  A    between atoms: _164  and  _165
REMARK   73  A    between atoms: _164  and  _167
REMARK   74  A    between atoms: _167  and  _168
REMARK   75  A    between atoms: _168  and  _169
REMARK   76  A    between atoms: _171  and  _173
REMARK   77  A    between atoms: _173  and  _174
REMARK   78  A    between atoms: _173  and  _176
REMARK   79  A    between atoms: _176  and  _177
REMARK   80  A    between atoms: _177  and  _178
REMARK   81  A    between atoms: _178  and  _179
REMARK   82  A    between atoms: _179  and  _180
REMARK   83  A    between atoms: _184  and  _186
REMARK   84  A    between atoms: _186  and  _187
REMARK   85  A    between atoms: _186  and  _189
REMARK   86  A    between atoms: _189  and  _190
REMARK   87  A    between atoms: _193  and  _195
REMARK   88  A    between atoms: _195  and  _196
REMARK   89  A    between atoms: _195  and  _198
REMARK   90  A    between atoms: _198  and  _199
REMARK   91  A    between atoms: _204  and  _205
REMARK   92  A    between atoms: _207  and  _209
REMARK   93  A    between atoms: _209  and  _210
REMARK   94  A    between atoms: _209  and  _212
REMARK   95  A    between atoms: _212  and  _213
REMARK   96  A    between atoms: _213  and  _214
REMARK   97  A    between atoms: _217  and  _219
REMARK   98  A    between atoms: _219  and  _220
REMARK   99  A    between atoms: _219  and  _222
REMARK  100  A    between atoms: _222  and  _223
REMARK  101  A    between atoms: _228  and  _229
REMARK  102  A    between atoms: _231  and  _233
REMARK  103  A    between atoms: _233  and  _234
REMARK  104  A    between atoms: _233  and  _236
REMARK  105  A    between atoms: _236  and  _237
REMARK  106  A    between atoms: _240  and  _242
REMARK  107  A    between atoms: _242  and  _243
REMARK  108  A    between atoms: _242  and  _245
REMARK  109  A    between atoms: _248  and  _250
REMARK  110  A    between atoms: _250  and  _251
REMARK  111  A    between atoms: _253  and  _255
REMARK  112  A    between atoms: _255  and  _256
REMARK  113  A    between atoms: _255  and  _258
REMARK  114  A    between atoms: _258  and  _259
REMARK  115  A    between atoms: _259  and  _260
REMARK  116  A    between atoms: _263  and  _265
REMARK  117  A    between atoms: _265  and  _266
REMARK  118  A    between atoms: _265  and  _268
REMARK  119  A    between atoms: _271  and  _273
REMARK  120  A    between atoms: _273  and  _274
REMARK  121  A    between atoms: _273  and  _276
REMARK  122  A    between atoms: _276  and  _277
REMARK  123  A    between atoms: _282  and  _283
REMARK  124  A    between atoms: _285  and  _287
REMARK  125  A    between atoms: _287  and  _288
REMARK  126  A    between atoms: _287  and  _290
REMARK  127  A    between atoms: _290  and  _291
REMARK  128  A    between atoms: _294  and  _296
REMARK  129  A    between atoms: _296  and  _297
REMARK  130  A    between atoms: _299  and  _301
REMARK  131  A    between atoms: _301  and  _302
REMARK  132  A    between atoms: _304  and  _306
REMARK  133  A    between atoms: _306  and  _307
REMARK  134  A    between atoms: _306  and  _309
REMARK  135  A    between atoms: _309  and  _310
REMARK  136  A    between atoms: _310  and  _311
REMARK  137  A    between atoms: _314  and  _316
REMARK  138  A    between atoms: _316  and  _317
REMARK  139  A    between atoms: _316  and  _319
REMARK  140  A    between atoms: _319  and  _320
REMARK  141  A    between atoms: _323  and  _325
REMARK  142  A    between atoms: _325  and  _326
REMARK  143  A    between atoms: _325  and  _328
REMARK  144  A    between atoms: _328  and  _329
REMARK  145  A    between atoms: _333  and  _334
REMARK  146  A    between atoms: _339  and  _341
REMARK  147  A    between atoms: _341  and  _342
REMARK  148  A    between atoms: _341  and  _344
REMARK  149  A    between atoms: _344  and  _345
REMARK  150  A    between atoms: _345  and  _346
REMARK  151  A    between atoms: _349  and  _351
REMARK  152  A    between atoms: _351  and  _352
REMARK  153  A    between atoms: _351  and  _354
REMARK  154  A    between atoms: _354  and  _355
REMARK  155  A    between atoms: _360  and  _362
REMARK  156  A    between atoms: _362  and  _363
REMARK  157  A    between atoms: _362  and  _365
REMARK  158  A    between atoms: _365  and  _366
REMARK  159  A    between atoms: _369  and  _371
REMARK  160  A    between atoms: _371  and  _372
REMARK  161  A    between atoms: _371  and  _374
REMARK  162  A    between atoms: _374  and  _375
REMARK  163  A    between atoms: _378  and  _380
REMARK  164  A    between atoms: _380  and  _381
REMARK  165  A    between atoms: _380  and  _383
REMARK  166  A    between atoms: _383  and  _384
REMARK  167  A    between atoms: _387  and  _389
REMARK  168  A    between atoms: _389  and  _390
REMARK  169  A    between atoms: _389  and  _392
REMARK  170  A    between atoms: _392  and  _393
REMARK  171  A    between atoms: _393  and  _394
REMARK  172  A    between atoms: _397  and  _399
REMARK  173  A    between atoms: _399  and  _400
REMARK  174  A    between atoms: _399  and  _402
REMARK  175  A    between atoms: _402  and  _403
REMARK  176  A    between atoms: _403  and  _404
REMARK  177  A    between atoms: _404  and  _405
REMARK  178  A    between atoms: _414  and  _416
REMARK  179  A    between atoms: _416  and  _417
REMARK  180  A    between atoms: _416  and  _419
REMARK  181  A    between atoms: _419  and  _420
REMARK  182  A    between atoms: _423  and  _425
REMARK  183  A    between atoms: _425  and  _426
REMARK  184  A    between atoms: _425  and  _428
REMARK  185  A    between atoms: _428  and  _429
REMARK  186  A    between atoms: _432  and  _434
REMARK  187  A    between atoms: _434  and  _435
REMARK  188  A    between atoms: _434  and  _437
REMARK  189  A    between atoms: _437  and  _438
REMARK  190  A    between atoms: _441  and  _443
REMARK  191  A    between atoms: _443  and  _444
REMARK  192  A    between atoms: _443  and  _446
REMARK  193  A    between atoms: _446  and  _447
REMARK  194  A    between atoms: _453  and  _455
REMARK  195  A    between atoms: _455  and  _456
REMARK  196  A    between atoms: _458  and  _460
REMARK  197  A    between atoms: _460  and  _461
REMARK  198  A    between atoms: _460  and  _463
REMARK  199  A    between atoms: _463  and  _464
REMARK  200  A    between atoms: _467  and  _469
REMARK  201  A    between atoms: _469  and  _470
REMARK  202  A    between atoms: _469  and  _472
REMARK  203  A    between atoms: _472  and  _473
REMARK  204  A    between atoms: _479  and  _481
REMARK  205  A    between atoms: _481  and  _482
REMARK  206  A    between atoms: _481  and  _484
REMARK  207  A    between atoms: _484  and  _485
REMARK  208  A    between atoms: _485  and  _486
REMARK  209  A    between atoms: _486  and  _487
REMARK  210  A    between atoms: _487  and  _488
REMARK  211  A    between atoms: _492  and  _494
REMARK  212  A    between atoms: _494  and  _495
REMARK  213  A    between atoms: _494  and  _497
REMARK  214  A    between atoms: _497  and  _498
REMARK  215  A    between atoms: _498  and  _499
REMARK                            x       y       z     vdW  Elec       q    Type
REMARK                         _______ _______ _______ _____ _____    ______ ____
ROOT
ATOM      1  CB  PHE A   1      13.072  23.538  33.686  0.00  0.00    +0.051 C 
ENDROOT
BRANCH   1   2
ATOM      2  CG  PHE A   1      12.987  22.465  34.734  0.00  0.00    -0.020 A 
ATOM      3  CD2 PHE A   1      12.824  22.796  36.075  0.00  0.00    -0.004 A 
ATOM      4  CE2 PHE A   1      12.756  21.809  37.046  0.00  0.00    -0.000 A 
ATOM      5  CZ  PHE A   1      12.855  20.480  36.689  0.00  0.00    -0.000 A 
ATOM      6  CE1 PHE A   1      13.017  20.136  35.355  0.00  0.00    -0.000 A 
ATOM      7  CD1 PHE A   1      13.078  21.124  34.385  0.00  0.00    -0.004 A 
ENDBRANCH   1   2
BRANCH   1   8
ATOM      8  CA  PHE A   1      11.729  24.180  33.352  0.00  0.00    +0.137 C 
BRANCH   8   9
ATOM      9  N   PHE A   1      10.788  23.151  32.912  0.00  0.00    -0.239 NA
ATOM     10  H   PHE A   1      10.958  22.662  32.010  0.00  0.00    +0.142 HD
ENDBRANCH   8   9
BRANCH   8  11
ATOM     11  C   PHE A   1      11.924  25.248  32.279  0.00  0.00    +0.224 C 
ATOM     12  O   PHE A   1      11.826  24.974  31.082  0.00  0.00    -0.287 OA
ENDBRANCH   8  11
ENDBRANCH   1   8
TORSDOF 4
REMARK  Name = ../refined-set-2016/3v5p/3v5p_pocket.pdb
REMARK  215 active torsions:
REMARK  status: ('A' for Active; 'I' for Inactive)
REMARK    1  A    between atoms: _1  and  _3
REMARK    2  A    between atoms: _3  and  _4
REMARK    3  A    between atoms: _3  and  _6
REMARK    4  A    between atoms: _9  and  _11
REMARK    5  A    between atoms: _11  and  _12
REMARK    6  A    between atoms: _11  and  _14
REMARK    7  A    between atoms: _14  and  _15
REMARK    8  A    between atoms: _18  and  _20
REMARK    9  A    between atoms: _20  and  _21
REMARK   10  A    between atoms: _23  and  _25
REMARK   11  A    between atoms: _25  and  _26
REMARK   12  A    between atoms: _25  and  _28
REMARK   13  A    between atoms: _28  and  _29
REMARK   14  A    between atoms: _29  and  _30
REMARK   15  A    between atoms: _30  and  _31
REMARK   16  A    between atoms: _31  and  _32
REMARK   17  A    between atoms: _36  and  _38
REMARK   18  A    between atoms: _38  and  _39
REMARK   19  A    between atoms: _41  and  _43
REMARK   20  A    between atoms: _43  and  _44
REMARK   21  A    between atoms: _43  and  _46
REMARK   22  A    between atoms: _46  and  _47
REMARK   23  A    between atoms: _49  and  _51
REMARK   24  A    between atoms: _51  and  _52
REMARK   25  A    between atoms: _51  and  _54
REMARK   26  A    between atoms: _54  and  _55
REMARK   27  A    between atoms: _61  and  _63
REMARK   28  A    between atoms: _63  and  _64
REMARK   29  A    between atoms: _66  and  _68
REMARK   30  A    between atoms: _68  and  _69
REMARK   31  A    between atoms: _68  and  _71
REMARK   32  A    between atoms: _71  and  _72
REMARK   33  A    between atoms: _72  and  _73
REMARK   34  A    between atoms: _76  and  _78
REMARK   35  A    between atoms: _78  and  _79
REMARK   36  A    between atoms: _78  and  _81
REMARK   37  A    between atoms: _84  and  _86
REMARK   38  A    between atoms: _86  and  _87
REMARK   39  A    between atoms: _86  and  _89
REMARK   40  A    between atoms: _89  and  _90
REMARK   41  A    between atoms: _93  and  _95
REMARK   42  A    between atoms: _95  and  _96
REMARK   43  A    between atoms: _95  and  _98
REMARK   44  A    between atoms: _98  and  _99
REMARK   45  A    between atoms: _102  and  _104
REMARK   46  A    between atoms: _104  and  _105
REMARK   47  A    between atoms: _104  and  _107
REMARK   48  A    between atoms: _109  and  _111
REMARK   49  A    between atoms: _111  and  _112
REMARK   50  A    between atoms: _115  and  _117
REMARK   51  A    between atoms: _117  and  _118
REMARK   52  A    between atoms: _117  and  _120
REMARK   53  A    between atoms: _123  and  _125
REMARK   54  A    between atoms: _125  and  _126
REMARK   55  A    between atoms: _125  and  _128
REMARK   56  A    between atoms: _128  and  _129
REMARK   57  A    between atoms: _129  and  _130
REMARK   58  A    between atoms: _130  and  _131
REMARK   59  A    between atoms: _131  and  _132
REMARK   60  A    between atoms: _136  and  _138
REMARK   61  A    between atoms: _138  and  _139
REMARK   62  A    between atoms: _138  and  _141
REMARK   63  A    between atoms: _144  and  _146
REMARK   64  A    between atoms: _146  and  _147
REMARK   65  A    between atoms: _146  and  _149
REMARK   66  A    between atoms: _149  and  _150
REMARK   67  A    between atoms: _153  and  _155
REMARK   68  A    between atoms: _155  and  _156
REMARK   69  A    between atoms: _155  and  _158
REMARK   70  A    between atoms: _158  and  _159
REMARK   71  A    between atoms: _162  and  _164
REMARK   72  A    between atoms: _164  and  _165
REMARK   73  A    between atoms: _164  and  _167
REMARK   74  A    between atoms: _167  and  _168
REMARK   75  A    between atoms: _168  and  _169
REMARK   76  A    between atoms: _171  and  _173
REMARK   77  A    between atoms: _173  and  _174
REMARK   78  A    between atoms: _173  and  _176
REMARK   79  A    between atoms: _176  and  _177
REMARK   80  A    between atoms: _177  and  _178
REMARK   81  A    between atoms: _178  and  _179
REMARK   82  A    between atoms: _179  and  _180
REMARK   83  A    between atoms: _184  and  _186
REMARK   84  A    between atoms: _186  and  _187
REMARK   85  A    between atoms: _186  and  _189
REMARK   86  A    between atoms: _189  and  _190
REMARK   87  A    between atoms: _193  and  _195
REMARK   88  A    between atoms: _195  and  _196
REMARK   89  A    between atoms: _195  and  _198
REMARK   90  A    between atoms: _198  and  _199
REMARK   91  A    between atoms: _204  and  _205
REMARK   92  A    between atoms: _207  and  _209
REMARK   93  A    between atoms: _209  and  _210
REMARK   94  A    between atoms: _209  and  _212
REMARK   95  A    between atoms: _212  and  _213
REMARK   96  A    between atoms: _213  and  _214
REMARK   97  A    between atoms: _217  and  _219
REMARK   98  A    between atoms: _219  and  _220
REMARK   99  A    between atoms: _219  and  _222
REMARK  100  A    between atoms: _222  and  _223
REMARK  101  A    between atoms: _228  and  _229
REMARK  102  A    between atoms: _231  and  _233
REMARK  103  A    between atoms: _233  and  _234
REMARK  104  A    between atoms: _233  and  _236
REMARK  105  A    between atoms: _236  and  _237
REMARK  106  A    between atoms: _240  and  _242
REMARK  107  A    between atoms: _242  and  _243
REMARK  108  A    between atoms: _242  and  _245
REMARK  109  A    between atoms: _248  and  _250
REMARK  110  A    between atoms: _250  and  _251
REMARK  111  A    between atoms: _253  and  _255
REMARK  112  A    between atoms: _255  and  _256
REMARK  113  A    between atoms: _255  and  _258
REMARK  114  A    between atoms: _258  and  _259
REMARK  115  A    between atoms: _259  and  _260
REMARK  116  A    between atoms: _263  and  _265
REMARK  117  A    between atoms: _265  and  _266
REMARK  118  A    between atoms: _265  and  _268
REMARK  119  A    between atoms: _271  and  _273
REMARK  120  A    between atoms: _273  and  _274
REMARK  121  A    between atoms: _273  and  _276
REMARK  122  A    between atoms: _276  and  _277
REMARK  123  A    between atoms: _282  and  _283
REMARK  124  A    between atoms: _285  and  _287
REMARK  125  A    between atoms: _287  and  _288
REMARK  126  A    between atoms: _287  and  _290
REMARK  127  A    between atoms: _290  and  _291
REMARK  128  A    between atoms: _294  and  _296
REMARK  129  A    between atoms: _296  and  _297
REMARK  130  A    between atoms: _299  and  _301
REMARK  131  A    between atoms: _301  and  _302
REMARK  132  A    between atoms: _304  and  _306
REMARK  133  A    between atoms: _306  and  _307
REMARK  134  A    between atoms: _306  and  _309
REMARK  135  A    between atoms: _309  and  _310
REMARK  136  A    between atoms: _310  and  _311
REMARK  137  A    between atoms: _314  and  _316
REMARK  138  A    between atoms: _316  and  _317
REMARK  139  A    between atoms: _316  and  _319
REMARK  140  A    between atoms: _319  and  _320
REMARK  141  A    between atoms: _323  and  _325
REMARK  142  A    between atoms: _325  and  _326
REMARK  143  A    between atoms: _325  and  _328
REMARK  144  A    between atoms: _328  and  _329
REMARK  145  A    between atoms: _333  and  _334
REMARK  146  A    between atoms: _339  and  _341
REMARK  147  A    between atoms: _341  and  _342
REMARK  148  A    between atoms: _341  and  _344
REMARK  149  A    between atoms: _344  and  _345
REMARK  150  A    between atoms: _345  and  _346
REMARK  151  A    between atoms: _349  and  _351
REMARK  152  A    between atoms: _351  and  _352
REMARK  153  A    between atoms: _351  and  _354
REMARK  154  A    between atoms: _354  and  _355
REMARK  155  A    between atoms: _360  and  _362
REMARK  156  A    between atoms: _362  and  _363
REMARK  157  A    between atoms: _362  and  _365
REMARK  158  A    between atoms: _365  and  _366
REMARK  159  A    between atoms: _369  and  _371
REMARK  160  A    between atoms: _371  and  _372
REMARK  161  A    between atoms: _371  and  _374
REMARK  162  A    between atoms: _374  and  _375
REMARK  163  A    between atoms: _378  and  _380
REMARK  164  A    between atoms: _380  and  _381
REMARK  165  A    between atoms: _380  and  _383
REMARK  166  A    between atoms: _383  and  _384
REMARK  167  A    between atoms: _387  and  _389
REMARK  168  A    between atoms: _389  and  _390
REMARK  169  A    between atoms: _389  and  _392
REMARK  170  A    between atoms: _392  and  _393
REMARK  171  A    between atoms: _393  and  _394
REMARK  172  A    between atoms: _397  and  _399
REMARK  173  A    between atoms: _399  and  _400
REMARK  174  A    between atoms: _399  and  _402
REMARK  175  A    between atoms: _402  and  _403
REMARK  176  A    between atoms: _403  and  _404
REMARK  177  A    between atoms: _404  and  _405
REMARK  178  A    between atoms: _414  and  _416
REMARK  179  A    between atoms: _416  and  _417
REMARK  180  A    between atoms: _416  and  _419
REMARK  181  A    between atoms: _419  and  _420
REMARK  182  A    between atoms: _423  and  _425
REMARK  183  A    between atoms: _425  and  _426
REMARK  184  A    between atoms: _425  and  _428
REMARK  185  A    between atoms: _428  and  _429
REMARK  186  A    between atoms: _432  and  _434
REMARK  187  A    between atoms: _434  and  _435
REMARK  188  A    between atoms: _434  and  _437
REMARK  189  A    between atoms: _437  and  _438
REMARK  190  A    between atoms: _441  and  _443
REMARK  191  A    between atoms: _443  and  _444
REMARK  192  A    between atoms: _443  and  _446
REMARK  193  A    between atoms: _446  and  _447
REMARK  194  A    between atoms: _453  and  _455
REMARK  195  A    between atoms: _455  and  _456
REMARK  196  A    between atoms: _458  and  _460
REMARK  197  A    between atoms: _460  and  _461
REMARK  198  A    between atoms: _460  and  _463
REMARK  199  A    between atoms: _463  and  _464
REMARK  200  A    between atoms: _467  and  _469
REMARK  201  A    between atoms: _469  and  _470
REMARK  202  A    between atoms: _469  and  _472
REMARK  203  A    between atoms: _472  and  _473
REMARK  204  A    between atoms: _479  and  _481
REMARK  205  A    between atoms: _481  and  _482
REMARK  206  A    between atoms: _481  and  _484
REMARK  207  A    between atoms: _484  and  _485
REMARK  208  A    between atoms: _485  and  _486
REMARK  209  A    between atoms: _486  and  _487
REMARK  210  A    between atoms: _487  and  _488
REMARK  211  A    between atoms: _492  and  _494
REMARK  212  A    between atoms: _494  and  _495
REMARK  213  A    between atoms: _494  and  _497
REMARK  214  A    between atoms: _497  and  _498
REMARK  215  A    between atoms: _498  and  _499
REMARK                            x       y       z     vdW  Elec       q    Type
REMARK                         _______ _______ _______ _____ _____    ______ ____
ROOT
ATOM      1  CG  LYS A   1      33.770  23.370  21.157  0.00  0.00    -0.000 C 
ENDROOT
BRANCH   1   2
ATOM      2  CB  LYS A   1      34.518  24.668  21.454  0.00  0.00    +0.025 C 
BRANCH   2   3
ATOM      3  CA  LYS A   1      33.620  25.908  21.654  0.00  0.00    +0.133 C 
BRANCH   3   4
ATOM      4  N   LYS A   1      32.913  26.254  20.417  0.00  0.00    -0.239 NA
ATOM      5  H   LYS A   1      33.219  25.803  19.531  0.00  0.00    +0.142 HD
ENDBRANCH   3   4
BRANCH   3   6
ATOM      6  C   LYS A   1      34.477  27.067  22.164  0.00  0.00    +0.224 C 
ATOM      7  O   LYS A   1      34.569  27.279  23.366  0.00  0.00    -0.287 OA
ENDBRANCH   3   6
ENDBRANCH   2   3
ENDBRANCH   1   2
BRANCH   1   8
ATOM      8  CD  LYS A   1      32.996  22.878  22.370  0.00  0.00    -0.024 C 
BRANCH   8   9
ATOM      9  CE  LYS A   1      32.422  21.485  22.165  0.00  0.00    -0.086 C 
BRANCH   9  10
ATOM     10  NZ  LYS A   1      31.333  21.205  23.144  0.00  0.00    +0.380 N 
ATOM     11  HZ1 LYS A   1      31.712  21.271  24.110  0.00  0.00    -0.089 HD
ATOM     12  HZ2 LYS A   1      30.570  21.901  23.021  0.00  0.00    -0.089 HD
ATOM     13  HZ3 LYS A   1      30.960  20.248  22.981  0.00  0.00    -0.089 HD
ENDBRANCH   9  10
ENDBRANCH   8   9
ENDBRANCH   1   8
TORSDOF 7
REMARK  Name = ../refined-set-2016/3v5p/3v5p_pocket.pdb
REMARK  215 active torsions:
REMARK  status: ('A' for Active; 'I' for Inactive)
REMARK    1  A    between atoms: _1  and  _3
REMARK    2  A    between atoms: _3  and  _4
REMARK    3  A    between atoms: _3  and  _6
REMARK    4  A    between atoms: _9  and  _11
REMARK    5  A    between atoms: _11  and  _12
REMARK    6  A    between atoms: _11  and  _14
REMARK    7  A    between atoms: _14  and  _15
REMARK    8  A    between atoms: _18  and  _20
REMARK    9  A    between atoms: _20  and  _21
REMARK   10  A    between atoms: _23  and  _25
REMARK   11  A    between atoms: _25  and  _26
REMARK   12  A    between atoms: _25  and  _28
REMARK   13  A    between atoms: _28  and  _29
REMARK   14  A    between atoms: _29  and  _30
REMARK   15  A    between atoms: _30  and  _31
REMARK   16  A    between atoms: _31  and  _32
REMARK   17  A    between atoms: _36  and  _38
REMARK   18  A    between atoms: _38  and  _39
REMARK   19  A    between atoms: _41  and  _43
REMARK   20  A    between atoms: _43  and  _44
REMARK   21  A    between atoms: _43  and  _46
REMARK   22  A    between atoms: _46  and  _47
REMARK   23  A    between atoms: _49  and  _51
REMARK   24  A    between atoms: _51  and  _52
REMARK   25  A    between atoms: _51  and  _54
REMARK   26  A    between atoms: _54  and  _55
REMARK   27  A    between atoms: _61  and  _63
REMARK   28  A    between atoms: _63  and  _64
REMARK   29  A    between atoms: _66  and  _68
REMARK   30  A    between atoms: _68  and  _69
REMARK   31  A    between atoms: _68  and  _71
REMARK   32  A    between atoms: _71  and  _72
REMARK   33  A    between atoms: _72  and  _73
REMARK   34  A    between atoms: _76  and  _78
REMARK   35  A    between atoms: _78  and  _79
REMARK   36  A    between atoms: _78  and  _81
REMARK   37  A    between atoms: _84  and  _86
REMARK   38  A    between atoms: _86  and  _87
REMARK   39  A    between atoms: _86  and  _89
REMARK   40  A    between atoms: _89  and  _90
REMARK   41  A    between atoms: _93  and  _95
REMARK   42  A    between atoms: _95  and  _96
REMARK   43  A    between atoms: _95  and  _98
REMARK   44  A    between atoms: _98  and  _99
REMARK   45  A    between atoms: _102  and  _104
REMARK   46  A    between atoms: _104  and  _105
REMARK   47  A    between atoms: _104  and  _107
REMARK   48  A    between atoms: _109  and  _111
REMARK   49  A    between atoms: _111  and  _112
REMARK   50  A    between atoms: _115  and  _117
REMARK   51  A    between atoms: _117  and  _118
REMARK   52  A    between atoms: _117  and  _120
REMARK   53  A    between atoms: _123  and  _125
REMARK   54  A    between atoms: _125  and  _126
REMARK   55  A    between atoms: _125  and  _128
REMARK   56  A    between atoms: _128  and  _129
REMARK   57  A    between atoms: _129  and  _130
REMARK   58  A    between atoms: _130  and  _131
REMARK   59  A    between atoms: _131  and  _132
REMARK   60  A    between atoms: _136  and  _138
REMARK   61  A    between atoms: _138  and  _139
REMARK   62  A    between atoms: _138  and  _141
REMARK   63  A    between atoms: _144  and  _146
REMARK   64  A    between atoms: _146  and  _147
REMARK   65  A    between atoms: _146  and  _149
REMARK   66  A    between atoms: _149  and  _150
REMARK   67  A    between atoms: _153  and  _155
REMARK   68  A    between atoms: _155  and  _156
REMARK   69  A    between atoms: _155  and  _158
REMARK   70  A    between atoms: _158  and  _159
REMARK   71  A    between atoms: _162  and  _164
REMARK   72  A    between atoms: _164  and  _165
REMARK   73  A    between atoms: _164  and  _167
REMARK   74  A    between atoms: _167  and  _168
REMARK   75  A    between atoms: _168  and  _169
REMARK   76  A    between atoms: _171  and  _173
REMARK   77  A    between atoms: _173  and  _174
REMARK   78  A    between atoms: _173  and  _176
REMARK   79  A    between atoms: _176  and  _177
REMARK   80  A    between atoms: _177  and  _178
REMARK   81  A    between atoms: _178  and  _179
REMARK   82  A    between atoms: _179  and  _180
REMARK   83  A    between atoms: _184  and  _186
REMARK   84  A    between atoms: _186  and  _187
REMARK   85  A    between atoms: _186  and  _189
REMARK   86  A    between atoms: _189  and  _190
REMARK   87  A    between atoms: _193  and  _195
REMARK   88  A    between atoms: _195  and  _196
REMARK   89  A    between atoms: _195  and  _198
REMARK   90  A    between atoms: _198  and  _199
REMARK   91  A    between atoms: _204  and  _205
REMARK   92  A    between atoms: _207  and  _209
REMARK   93  A    between atoms: _209  and  _210
REMARK   94  A    between atoms: _209  and  _212
REMARK   95  A    between atoms: _212  and  _213
REMARK   96  A    between atoms: _213  and  _214
REMARK   97  A    between atoms: _217  and  _219
REMARK   98  A    between atoms: _219  and  _220
REMARK   99  A    between atoms: _219  and  _222
REMARK  100  A    between atoms: _222  and  _223
REMARK  101  A    between atoms: _228  and  _229
REMARK  102  A    between atoms: _231  and  _233
REMARK  103  A    between atoms: _233  and  _234
REMARK  104  A    between atoms: _233  and  _236
REMARK  105  A    between atoms: _236  and  _237
REMARK  106  A    between atoms: _240  and  _242
REMARK  107  A    between atoms: _242  and  _243
REMARK  108  A    between atoms: _242  and  _245
REMARK  109  A    between atoms: _248  and  _250
REMARK  110  A    between atoms: _250  and  _251
REMARK  111  A    between atoms: _253  and  _255
REMARK  112  A    between atoms: _255  and  _256
REMARK  113  A    between atoms: _255  and  _258
REMARK  114  A    between atoms: _258  and  _259
REMARK  115  A    between atoms: _259  and  _260
REMARK  116  A    between atoms: _263  and  _265
REMARK  117  A    between atoms: _265  and  _266
REMARK  118  A    between atoms: _265  and  _268
REMARK  119  A    between atoms: _271  and  _273
REMARK  120  A    between atoms: _273  and  _274
REMARK  121  A    between atoms: _273  and  _276
REMARK  122  A    between atoms: _276  and  _277
REMARK  123  A    between atoms: _282  and  _283
REMARK  124  A    between atoms: _285  and  _287
REMARK  125  A    between atoms: _287  and  _288
REMARK  126  A    between atoms: _287  and  _290
REMARK  127  A    between atoms: _290  and  _291
REMARK  128  A    between atoms: _294  and  _296
REMARK  129  A    between atoms: _296  and  _297
REMARK  130  A    between atoms: _299  and  _301
REMARK  131  A    between atoms: _301  and  _302
REMARK  132  A    between atoms: _304  and  _306
REMARK  133  A    between atoms: _306  and  _307
REMARK  134  A    between atoms: _306  and  _309
REMARK  135  A    between atoms: _309  and  _310
REMARK  136  A    between atoms: _310  and  _311
REMARK  137  A    between atoms: _314  and  _316
REMARK  138  A    between atoms: _316  and  _317
REMARK  139  A    between atoms: _316  and  _319
REMARK  140  A    between atoms: _319  and  _320
REMARK  141  A    between atoms: _323  and  _325
REMARK  142  A    between atoms: _325  and  _326
REMARK  143  A    between atoms: _325  and  _328
REMARK  144  A    between atoms: _328  and  _329
REMARK  145  A    between atoms: _333  and  _334
REMARK  146  A    between atoms: _339  and  _341
REMARK  147  A    between atoms: _341  and  _342
REMARK  148  A    between atoms: _341  and  _344
REMARK  149  A    between atoms: _344  and  _345
REMARK  150  A    between atoms: _345  and  _346
REMARK  151  A    between atoms: _349  and  _351
REMARK  152  A    between atoms: _351  and  _352
REMARK  153  A    between atoms: _351  and  _354
REMARK  154  A    between atoms: _354  and  _355
REMARK  155  A    between atoms: _360  and  _362
REMARK  156  A    between atoms: _362  and  _363
REMARK  157  A    between atoms: _362  and  _365
REMARK  158  A    between atoms: _365  and  _366
REMARK  159  A    between atoms: _369  and  _371
REMARK  160  A    between atoms: _371  and  _372
REMARK  161  A    between atoms: _371  and  _374
REMARK  162  A    between atoms: _374  and  _375
REMARK  163  A    between atoms: _378  and  _380
REMARK  164  A    between atoms: _380  and  _381
REMARK  165  A    between atoms: _380  and  _383
REMARK  166  A    between atoms: _383  and  _384
REMARK  167  A    between atoms: _387  and  _389
REMARK  168  A    between atoms: _389  and  _390
REMARK  169  A    between atoms: _389  and  _392
REMARK  170  A    between atoms: _392  and  _393
REMARK  171  A    between atoms: _393  and  _394
REMARK  172  A    between atoms: _397  and  _399
REMARK  173  A    between atoms: _399  and  _400
REMARK  174  A    between atoms: _399  and  _402
REMARK  175  A    between atoms: _402  and  _403
REMARK  176  A    between atoms: _403  and  _404
REMARK  177  A    between atoms: _404  and  _405
REMARK  178  A    between atoms: _414  and  _416
REMARK  179  A    between atoms: _416  and  _417
REMARK  180  A    between atoms: _416  and  _419
REMARK  181  A    between atoms: _419  and  _420
REMARK  182  A    between atoms: _423  and  _425
REMARK  183  A    between atoms: _425  and  _426
REMARK  184  A    between atoms: _425  and  _428
REMARK  185  A    between atoms: _428  and  _429
REMARK  186  A    between atoms: _432  and  _434
REMARK  187  A    between atoms: _434  and  _435
REMARK  188  A    between atoms: _434  and  _437
REMARK  189  A    between atoms: _437  and  _438
REMARK  190  A    between atoms: _441  and  _443
REMARK  191  A    between atoms: _443  and  _444
REMARK  192  A    between atoms: _443  and  _446
REMARK  193  A    between atoms: _446  and  _447
REMARK  194  A    between atoms: _453  and  _455
REMARK  195  A    between atoms: _455  and  _456
REMARK  196  A    between atoms: _458  and  _460
REMARK  197  A    between atoms: _460  and  _461
REMARK  198  A    between atoms: _460  and  _463
REMARK  199  A    between atoms: _463  and  _464
REMARK  200  A    between atoms: _467  and  _469
REMARK  201  A    between atoms: _469  and  _470
REMARK  202  A    between atoms: _469  and  _472
REMARK  203  A    between atoms: _472  and  _473
REMARK  204  A    between atoms: _479  and  _481
REMARK  205  A    between atoms: _481  and  _482
REMARK  206  A    between atoms: _481  and  _484
REMARK  207  A    between atoms: _484  and  _485
REMARK  208  A    between atoms: _485  and  _486
REMARK  209  A    between atoms: _486  and  _487
REMARK  210  A    between atoms: _487  and  _488
REMARK  211  A    between atoms: _492  and  _494
REMARK  212  A    between atoms: _494  and  _495
REMARK  213  A    between atoms: _494  and  _497
REMARK  214  A    between atoms: _497  and  _498
REMARK  215  A    between atoms: _498  and  _499
REMARK                            x       y       z     vdW  Elec       q    Type
REMARK                         _______ _______ _______ _____ _____    ______ ____
ROOT
ATOM      1  CB  GLN A   1      31.053  27.716  24.546  0.00  0.00    +0.035 C 
ENDROOT
BRANCH   1   2
ATOM      2  CA  GLN A   1      31.479  29.178  24.766  0.00  0.00    +0.134 C 
BRANCH   2   3
ATOM      3  N   GLN A   1      31.990  29.716  23.510  0.00  0.00    -0.239 NA
ATOM      4  H   GLN A   1      32.087  29.070  22.701  0.00  0.00    +0.142 HD
ENDBRANCH   2   3
BRANCH   2   5
ATOM      5  C   GLN A   1      32.513  29.259  25.895  0.00  0.00    +0.224 C 
ATOM      6  O   GLN A   1      32.187  29.661  27.011  0.00  0.00    -0.287 OA
ENDBRANCH   2   5
ENDBRANCH   1   2
BRANCH   1   7
ATOM      7  CG  GLN A   1      30.278  27.088  25.686  0.00  0.00    +0.087 C 
BRANCH   7   8
ATOM      8  CD  GLN A   1      29.459  25.894  25.228  0.00  0.00    +0.219 C 
ATOM      9  NE2 GLN A   1      28.212  25.816  25.689  0.00  0.00    -0.329 N 
ATOM     10 HE21 GLN A   1      27.850  26.547  26.334  0.00  0.00    +0.145 HD
ATOM     11 HE22 GLN A   1      27.601  25.025  25.404  0.00  0.00    +0.145 HD
ATOM     12  OE1 GLN A   1      29.938  25.055  24.461  0.00  0.00    -0.275 OA
ENDBRANCH   7   8
ENDBRANCH   1   7
TORSDOF 5
REMARK  Name = ../refined-set-2016/3v5p/3v5p_pocket.pdb
REMARK  215 active torsions:
REMARK  status: ('A' for Active; 'I' for Inactive)
REMARK    1  A    between atoms: _1  and  _3
REMARK    2  A    between atoms: _3  and  _4
REMARK    3  A    between atoms: _3  and  _6
REMARK    4  A    between atoms: _9  and  _11
REMARK    5  A    between atoms: _11  and  _12
REMARK    6  A    between atoms: _11  and  _14
REMARK    7  A    between atoms: _14  and  _15
REMARK    8  A    between atoms: _18  and  _20
REMARK    9  A    between atoms: _20  and  _21
REMARK   10  A    between atoms: _23  and  _25
REMARK   11  A    between atoms: _25  and  _26
REMARK   12  A    between atoms: _25  and  _28
REMARK   13  A    between atoms: _28  and  _29
REMARK   14  A    between atoms: _29  and  _30
REMARK   15  A    between atoms: _30  and  _31
REMARK   16  A    between atoms: _31  and  _32
REMARK   17  A    between atoms: _36  and  _38
REMARK   18  A    between atoms: _38  and  _39
REMARK   19  A    between atoms: _41  and  _43
REMARK   20  A    between atoms: _43  and  _44
REMARK   21  A    between atoms: _43  and  _46
REMARK   22  A    between atoms: _46  and  _47
REMARK   23  A    between atoms: _49  and  _51
REMARK   24  A    between atoms: _51  and  _52
REMARK   25  A    between atoms: _51  and  _54
REMARK   26  A    between atoms: _54  and  _55
REMARK   27  A    between atoms: _61  and  _63
REMARK   28  A    between atoms: _63  and  _64
REMARK   29  A    between atoms: _66  and  _68
REMARK   30  A    between atoms: _68  and  _69
REMARK   31  A    between atoms: _68  and  _71
REMARK   32  A    between atoms: _71  and  _72
REMARK   33  A    between atoms: _72  and  _73
REMARK   34  A    between atoms: _76  and  _78
REMARK   35  A    between atoms: _78  and  _79
REMARK   36  A    between atoms: _78  and  _81
REMARK   37  A    between atoms: _84  and  _86
REMARK   38  A    between atoms: _86  and  _87
REMARK   39  A    between atoms: _86  and  _89
REMARK   40  A    between atoms: _89  and  _90
REMARK   41  A    between atoms: _93  and  _95
REMARK   42  A    between atoms: _95  and  _96
REMARK   43  A    between atoms: _95  and  _98
REMARK   44  A    between atoms: _98  and  _99
REMARK   45  A    between atoms: _102  and  _104
REMARK   46  A    between atoms: _104  and  _105
REMARK   47  A    between atoms: _104  and  _107
REMARK   48  A    between atoms: _109  and  _111
REMARK   49  A    between atoms: _111  and  _112
REMARK   50  A    between atoms: _115  and  _117
REMARK   51  A    between atoms: _117  and  _118
REMARK   52  A    between atoms: _117  and  _120
REMARK   53  A    between atoms: _123  and  _125
REMARK   54  A    between atoms: _125  and  _126
REMARK   55  A    between atoms: _125  and  _128
REMARK   56  A    between atoms: _128  and  _129
REMARK   57  A    between atoms: _129  and  _130
REMARK   58  A    between atoms: _130  and  _131
REMARK   59  A    between atoms: _131  and  _132
REMARK   60  A    between atoms: _136  and  _138
REMARK   61  A    between atoms: _138  and  _139
REMARK   62  A    between atoms: _138  and  _141
REMARK   63  A    between atoms: _144  and  _146
REMARK   64  A    between atoms: _146  and  _147
REMARK   65  A    between atoms: _146  and  _149
REMARK   66  A    between atoms: _149  and  _150
REMARK   67  A    between atoms: _153  and  _155
REMARK   68  A    between atoms: _155  and  _156
REMARK   69  A    between atoms: _155  and  _158
REMARK   70  A    between atoms: _158  and  _159
REMARK   71  A    between atoms: _162  and  _164
REMARK   72  A    between atoms: _164  and  _165
REMARK   73  A    between atoms: _164  and  _167
REMARK   74  A    between atoms: _167  and  _168
REMARK   75  A    between atoms: _168  and  _169
REMARK   76  A    between atoms: _171  and  _173
REMARK   77  A    between atoms: _173  and  _174
REMARK   78  A    between atoms: _173  and  _176
REMARK   79  A    between atoms: _176  and  _177
REMARK   80  A    between atoms: _177  and  _178
REMARK   81  A    between atoms: _178  and  _179
REMARK   82  A    between atoms: _179  and  _180
REMARK   83  A    between atoms: _184  and  _186
REMARK   84  A    between atoms: _186  and  _187
REMARK   85  A    between atoms: _186  and  _189
REMARK   86  A    between atoms: _189  and  _190
REMARK   87  A    between atoms: _193  and  _195
REMARK   88  A    between atoms: _195  and  _196
REMARK   89  A    between atoms: _195  and  _198
REMARK   90  A    between atoms: _198  and  _199
REMARK   91  A    between atoms: _204  and  _205
REMARK   92  A    between atoms: _207  and  _209
REMARK   93  A    between atoms: _209  and  _210
REMARK   94  A    between atoms: _209  and  _212
REMARK   95  A    between atoms: _212  and  _213
REMARK   96  A    between atoms: _213  and  _214
REMARK   97  A    between atoms: _217  and  _219
REMARK   98  A    between atoms: _219  and  _220
REMARK   99  A    between atoms: _219  and  _222
REMARK  100  A    between atoms: _222  and  _223
REMARK  101  A    between atoms: _228  and  _229
REMARK  102  A    between atoms: _231  and  _233
REMARK  103  A    between atoms: _233  and  _234
REMARK  104  A    between atoms: _233  and  _236
REMARK  105  A    between atoms: _236  and  _237
REMARK  106  A    between atoms: _240  and  _242
REMARK  107  A    between atoms: _242  and  _243
REMARK  108  A    between atoms: _242  and  _245
REMARK  109  A    between atoms: _248  and  _250
REMARK  110  A    between atoms: _250  and  _251
REMARK  111  A    between atoms: _253  and  _255
REMARK  112  A    between atoms: _255  and  _256
REMARK  113  A    between atoms: _255  and  _258
REMARK  114  A    between atoms: _258  and  _259
REMARK  115  A    between atoms: _259  and  _260
REMARK  116  A    between atoms: _263  and  _265
REMARK  117  A    between atoms: _265  and  _266
REMARK  118  A    between atoms: _265  and  _268
REMARK  119  A    between atoms: _271  and  _273
REMARK  120  A    between atoms: _273  and  _274
REMARK  121  A    between atoms: _273  and  _276
REMARK  122  A    between atoms: _276  and  _277
REMARK  123  A    between atoms: _282  and  _283
REMARK  124  A    between atoms: _285  and  _287
REMARK  125  A    between atoms: _287  and  _288
REMARK  126  A    between atoms: _287  and  _290
REMARK  127  A    between atoms: _290  and  _291
REMARK  128  A    between atoms: _294  and  _296
REMARK  129  A    between atoms: _296  and  _297
REMARK  130  A    between atoms: _299  and  _301
REMARK  131  A    between atoms: _301  and  _302
REMARK  132  A    between atoms: _304  and  _306
REMARK  133  A    between atoms: _306  and  _307
REMARK  134  A    between atoms: _306  and  _309
REMARK  135  A    between atoms: _309  and  _310
REMARK  136  A    between atoms: _310  and  _311
REMARK  137  A    between atoms: _314  and  _316
REMARK  138  A    between atoms: _316  and  _317
REMARK  139  A    between atoms: _316  and  _319
REMARK  140  A    between atoms: _319  and  _320
REMARK  141  A    between atoms: _323  and  _325
REMARK  142  A    between atoms: _325  and  _326
REMARK  143  A    between atoms: _325  and  _328
REMARK  144  A    between atoms: _328  and  _329
REMARK  145  A    between atoms: _333  and  _334
REMARK  146  A    between atoms: _339  and  _341
REMARK  147  A    between atoms: _341  and  _342
REMARK  148  A    between atoms: _341  and  _344
REMARK  149  A    between atoms: _344  and  _345
REMARK  150  A    between atoms: _345  and  _346
REMARK  151  A    between atoms: _349  and  _351
REMARK  152  A    between atoms: _351  and  _352
REMARK  153  A    between atoms: _351  and  _354
REMARK  154  A    between atoms: _354  and  _355
REMARK  155  A    between atoms: _360  and  _362
REMARK  156  A    between atoms: _362  and  _363
REMARK  157  A    between atoms: _362  and  _365
REMARK  158  A    between atoms: _365  and  _366
REMARK  159  A    between atoms: _369  and  _371
REMARK  160  A    between atoms: _371  and  _372
REMARK  161  A    between atoms: _371  and  _374
REMARK  162  A    between atoms: _374  and  _375
REMARK  163  A    between atoms: _378  and  _380
REMARK  164  A    between atoms: _380  and  _381
REMARK  165  A    between atoms: _380  and  _383
REMARK  166  A    between atoms: _383  and  _384
REMARK  167  A    between atoms: _387  and  _389
REMARK  168  A    between atoms: _389  and  _390
REMARK  169  A    between atoms: _389  and  _392
REMARK  170  A    between atoms: _392  and  _393
REMARK  171  A    between atoms: _393  and  _394
REMARK  172  A    between atoms: _397  and  _399
REMARK  173  A    between atoms: _399  and  _400
REMARK  174  A    between atoms: _399  and  _402
REMARK  175  A    between atoms: _402  and  _403
REMARK  176  A    between atoms: _403  and  _404
REMARK  177  A    between atoms: _404  and  _405
REMARK  178  A    between atoms: _414  and  _416
REMARK  179  A    between atoms: _416  and  _417
REMARK  180  A    between atoms: _416  and  _419
REMARK  181  A    between atoms: _419  and  _420
REMARK  182  A    between atoms: _423  and  _425
REMARK  183  A    between atoms: _425  and  _426
REMARK  184  A    between atoms: _425  and  _428
REMARK  185  A    between atoms: _428  and  _429
REMARK  186  A    between atoms: _432  and  _434
REMARK  187  A    between atoms: _434  and  _435
REMARK  188  A    between atoms: _434  and  _437
REMARK  189  A    between atoms: _437  and  _438
REMARK  190  A    between atoms: _441  and  _443
REMARK  191  A    between atoms: _443  and  _444
REMARK  192  A    between atoms: _443  and  _446
REMARK  193  A    between atoms: _446  and  _447
REMARK  194  A    between atoms: _453  and  _455
REMARK  195  A    between atoms: _455  and  _456
REMARK  196  A    between atoms: _458  and  _460
REMARK  197  A    between atoms: _460  and  _461
REMARK  198  A    between atoms: _460  and  _463
REMARK  199  A    between atoms: _463  and  _464
REMARK  200  A    between atoms: _467  and  _469
REMARK  201  A    between atoms: _469  and  _470
REMARK  202  A    between atoms: _469  and  _472
REMARK  203  A    between atoms: _472  and  _473
REMARK  204  A    between atoms: _479  and  _481
REMARK  205  A    between atoms: _481  and  _482
REMARK  206  A    between atoms: _481  and  _484
REMARK  207  A    between atoms: _484  and  _485
REMARK  208  A    between atoms: _485  and  _486
REMARK  209  A    between atoms: _486  and  _487
REMARK  210  A    between atoms: _487  and  _488
REMARK  211  A    between atoms: _492  and  _494
REMARK  212  A    between atoms: _494  and  _495
REMARK  213  A    between atoms: _494  and  _497
REMARK  214  A    between atoms: _497  and  _498
REMARK  215  A    between atoms: _498  and  _499
REMARK                            x       y       z     vdW  Elec       q    Type
REMARK                         _______ _______ _______ _____ _____    ______ ____
ROOT
ATOM      1  O   HOH     1      27.490  16.757  19.159  0.00  0.00    +0.000 OA
ENDROOT
TORSDOF 0
REMARK  Name = ../refined-set-2016/3v5p/3v5p_pocket.pdb
REMARK  215 active torsions:
REMARK  status: ('A' for Active; 'I' for Inactive)
REMARK    1  A    between atoms: _1  and  _3
REMARK    2  A    between atoms: _3  and  _4
REMARK    3  A    between atoms: _3  and  _6
REMARK    4  A    between atoms: _9  and  _11
REMARK    5  A    between atoms: _11  and  _12
REMARK    6  A    between atoms: _11  and  _14
REMARK    7  A    between atoms: _14  and  _15
REMARK    8  A    between atoms: _18  and  _20
REMARK    9  A    between atoms: _20  and  _21
REMARK   10  A    between atoms: _23  and  _25
REMARK   11  A    between atoms: _25  and  _26
REMARK   12  A    between atoms: _25  and  _28
REMARK   13  A    between atoms: _28  and  _29
REMARK   14  A    between atoms: _29  and  _30
REMARK   15  A    between atoms: _30  and  _31
REMARK   16  A    between atoms: _31  and  _32
REMARK   17  A    between atoms: _36  and  _38
REMARK   18  A    between atoms: _38  and  _39
REMARK   19  A    between atoms: _41  and  _43
REMARK   20  A    between atoms: _43  and  _44
REMARK   21  A    between atoms: _43  and  _46
REMARK   22  A    between atoms: _46  and  _47
REMARK   23  A    between atoms: _49  and  _51
REMARK   24  A    between atoms: _51  and  _52
REMARK   25  A    between atoms: _51  and  _54
REMARK   26  A    between atoms: _54  and  _55
REMARK   27  A    between atoms: _61  and  _63
REMARK   28  A    between atoms: _63  and  _64
REMARK   29  A    between atoms: _66  and  _68
REMARK   30  A    between atoms: _68  and  _69
REMARK   31  A    between atoms: _68  and  _71
REMARK   32  A    between atoms: _71  and  _72
REMARK   33  A    between atoms: _72  and  _73
REMARK   34  A    between atoms: _76  and  _78
REMARK   35  A    between atoms: _78  and  _79
REMARK   36  A    between atoms: _78  and  _81
REMARK   37  A    between atoms: _84  and  _86
REMARK   38  A    between atoms: _86  and  _87
REMARK   39  A    between atoms: _86  and  _89
REMARK   40  A    between atoms: _89  and  _90
REMARK   41  A    between atoms: _93  and  _95
REMARK   42  A    between atoms: _95  and  _96
REMARK   43  A    between atoms: _95  and  _98
REMARK   44  A    between atoms: _98  and  _99
REMARK   45  A    between atoms: _102  and  _104
REMARK   46  A    between atoms: _104  and  _105
REMARK   47  A    between atoms: _104  and  _107
REMARK   48  A    between atoms: _109  and  _111
REMARK   49  A    between atoms: _111  and  _112
REMARK   50  A    between atoms: _115  and  _117
REMARK   51  A    between atoms: _117  and  _118
REMARK   52  A    between atoms: _117  and  _120
REMARK   53  A    between atoms: _123  and  _125
REMARK   54  A    between atoms: _125  and  _126
REMARK   55  A    between atoms: _125  and  _128
REMARK   56  A    between atoms: _128  and  _129
REMARK   57  A    between atoms: _129  and  _130
REMARK   58  A    between atoms: _130  and  _131
REMARK   59  A    between atoms: _131  and  _132
REMARK   60  A    between atoms: _136  and  _138
REMARK   61  A    between atoms: _138  and  _139
REMARK   62  A    between atoms: _138  and  _141
REMARK   63  A    between atoms: _144  and  _146
REMARK   64  A    between atoms: _146  and  _147
REMARK   65  A    between atoms: _146  and  _149
REMARK   66  A    between atoms: _149  and  _150
REMARK   67  A    between atoms: _153  and  _155
REMARK   68  A    between atoms: _155  and  _156
REMARK   69  A    between atoms: _155  and  _158
REMARK   70  A    between atoms: _158  and  _159
REMARK   71  A    between atoms: _162  and  _164
REMARK   72  A    between atoms: _164  and  _165
REMARK   73  A    between atoms: _164  and  _167
REMARK   74  A    between atoms: _167  and  _168
REMARK   75  A    between atoms: _168  and  _169
REMARK   76  A    between atoms: _171  and  _173
REMARK   77  A    between atoms: _173  and  _174
REMARK   78  A    between atoms: _173  and  _176
REMARK   79  A    between atoms: _176  and  _177
REMARK   80  A    between atoms: _177  and  _178
REMARK   81  A    between atoms: _178  and  _179
REMARK   82  A    between atoms: _179  and  _180
REMARK   83  A    between atoms: _184  and  _186
REMARK   84  A    between atoms: _186  and  _187
REMARK   85  A    between atoms: _186  and  _189
REMARK   86  A    between atoms: _189  and  _190
REMARK   87  A    between atoms: _193  and  _195
REMARK   88  A    between atoms: _195  and  _196
REMARK   89  A    between atoms: _195  and  _198
REMARK   90  A    between atoms: _198  and  _199
REMARK   91  A    between atoms: _204  and  _205
REMARK   92  A    between atoms: _207  and  _209
REMARK   93  A    between atoms: _209  and  _210
REMARK   94  A    between atoms: _209  and  _212
REMARK   95  A    between atoms: _212  and  _213
REMARK   96  A    between atoms: _213  and  _214
REMARK   97  A    between atoms: _217  and  _219
REMARK   98  A    between atoms: _219  and  _220
REMARK   99  A    between atoms: _219  and  _222
REMARK  100  A    between atoms: _222  and  _223
REMARK  101  A    between atoms: _228  and  _229
REMARK  102  A    between atoms: _231  and  _233
REMARK  103  A    between atoms: _233  and  _234
REMARK  104  A    between atoms: _233  and  _236
REMARK  105  A    between atoms: _236  and  _237
REMARK  106  A    between atoms: _240  and  _242
REMARK  107  A    between atoms: _242  and  _243
REMARK  108  A    between atoms: _242  and  _245
REMARK  109  A    between atoms: _248  and  _250
REMARK  110  A    between atoms: _250  and  _251
REMARK  111  A    between atoms: _253  and  _255
REMARK  112  A    between atoms: _255  and  _256
REMARK  113  A    between atoms: _255  and  _258
REMARK  114  A    between atoms: _258  and  _259
REMARK  115  A    between atoms: _259  and  _260
REMARK  116  A    between atoms: _263  and  _265
REMARK  117  A    between atoms: _265  and  _266
REMARK  118  A    between atoms: _265  and  _268
REMARK  119  A    between atoms: _271  and  _273
REMARK  120  A    between atoms: _273  and  _274
REMARK  121  A    between atoms: _273  and  _276
REMARK  122  A    between atoms: _276  and  _277
REMARK  123  A    between atoms: _282  and  _283
REMARK  124  A    between atoms: _285  and  _287
REMARK  125  A    between atoms: _287  and  _288
REMARK  126  A    between atoms: _287  and  _290
REMARK  127  A    between atoms: _290  and  _291
REMARK  128  A    between atoms: _294  and  _296
REMARK  129  A    between atoms: _296  and  _297
REMARK  130  A    between atoms: _299  and  _301
REMARK  131  A    between atoms: _301  and  _302
REMARK  132  A    between atoms: _304  and  _306
REMARK  133  A    between atoms: _306  and  _307
REMARK  134  A    between atoms: _306  and  _309
REMARK  135  A    between atoms: _309  and  _310
REMARK  136  A    between atoms: _310  and  _311
REMARK  137  A    between atoms: _314  and  _316
REMARK  138  A    between atoms: _316  and  _317
REMARK  139  A    between atoms: _316  and  _319
REMARK  140  A    between atoms: _319  and  _320
REMARK  141  A    between atoms: _323  and  _325
REMARK  142  A    between atoms: _325  and  _326
REMARK  143  A    between atoms: _325  and  _328
REMARK  144  A    between atoms: _328  and  _329
REMARK  145  A    between atoms: _333  and  _334
REMARK  146  A    between atoms: _339  and  _341
REMARK  147  A    between atoms: _341  and  _342
REMARK  148  A    between atoms: _341  and  _344
REMARK  149  A    between atoms: _344  and  _345
REMARK  150  A    between atoms: _345  and  _346
REMARK  151  A    between atoms: _349  and  _351
REMARK  152  A    between atoms: _351  and  _352
REMARK  153  A    between atoms: _351  and  _354
REMARK  154  A    between atoms: _354  and  _355
REMARK  155  A    between atoms: _360  and  _362
REMARK  156  A    between atoms: _362  and  _363
REMARK  157  A    between atoms: _362  and  _365
REMARK  158  A    between atoms: _365  and  _366
REMARK  159  A    between atoms: _369  and  _371
REMARK  160  A    between atoms: _371  and  _372
REMARK  161  A    between atoms: _371  and  _374
REMARK  162  A    between atoms: _374  and  _375
REMARK  163  A    between atoms: _378  and  _380
REMARK  164  A    between atoms: _380  and  _381
REMARK  165  A    between atoms: _380  and  _383
REMARK  166  A    between atoms: _383  and  _384
REMARK  167  A    between atoms: _387  and  _389
REMARK  168  A    between atoms: _389  and  _390
REMARK  169  A    between atoms: _389  and  _392
REMARK  170  A    between atoms: _392  and  _393
REMARK  171  A    between atoms: _393  and  _394
REMARK  172  A    between atoms: _397  and  _399
REMARK  173  A    between atoms: _399  and  _400
REMARK  174  A    between atoms: _399  and  _402
REMARK  175  A    between atoms: _402  and  _403
REMARK  176  A    between atoms: _403  and  _404
REMARK  177  A    between atoms: _404  and  _405
REMARK  178  A    between atoms: _414  and  _416
REMARK  179  A    between atoms: _416  and  _417
REMARK  180  A    between atoms: _416  and  _419
REMARK  181  A    between atoms: _419  and  _420
REMARK  182  A    between atoms: _423  and  _425
REMARK  183  A    between atoms: _425  and  _426
REMARK  184  A    between atoms: _425  and  _428
REMARK  185  A    between atoms: _428  and  _429
REMARK  186  A    between atoms: _432  and  _434
REMARK  187  A    between atoms: _434  and  _435
REMARK  188  A    between atoms: _434  and  _437
REMARK  189  A    between atoms: _437  and  _438
REMARK  190  A    between atoms: _441  and  _443
REMARK  191  A    between atoms: _443  and  _444
REMARK  192  A    between atoms: _443  and  _446
REMARK  193  A    between atoms: _446  and  _447
REMARK  194  A    between atoms: _453  and  _455
REMARK  195  A    between atoms: _455  and  _456
REMARK  196  A    between atoms: _458  and  _460
REMARK  197  A    between atoms: _460  and  _461
REMARK  198  A    between atoms: _460  and  _463
REMARK  199  A    between atoms: _463  and  _464
REMARK  200  A    between atoms: _467  and  _469
REMARK  201  A    between atoms: _469  and  _470
REMARK  202  A    between atoms: _469  and  _472
REMARK  203  A    between atoms: _472  and  _473
REMARK  204  A    between atoms: _479  and  _481
REMARK  205  A    between atoms: _481  and  _482
REMARK  206  A    between atoms: _481  and  _484
REMARK  207  A    between atoms: _484  and  _485
REMARK  208  A    between atoms: _485  and  _486
REMARK  209  A    between atoms: _486  and  _487
REMARK  210  A    between atoms: _487  and  _488
REMARK  211  A    between atoms: _492  and  _494
REMARK  212  A    between atoms: _494  and  _495
REMARK  213  A    between atoms: _494  and  _497
REMARK  214  A    between atoms: _497  and  _498
REMARK  215  A    between atoms: _498  and  _499
REMARK                            x       y       z     vdW  Elec       q    Type
REMARK                         _______ _______ _______ _____ _____    ______ ____
ROOT
ATOM      1  O   HOH     1      18.075  13.091  30.072  0.00  0.00    +0.000 OA
ENDROOT
TORSDOF 0
REMARK  Name = ../refined-set-2016/3v5p/3v5p_pocket.pdb
REMARK  215 active torsions:
REMARK  status: ('A' for Active; 'I' for Inactive)
REMARK    1  A    between atoms: _1  and  _3
REMARK    2  A    between atoms: _3  and  _4
REMARK    3  A    between atoms: _3  and  _6
REMARK    4  A    between atoms: _9  and  _11
REMARK    5  A    between atoms: _11  and  _12
REMARK    6  A    between atoms: _11  and  _14
REMARK    7  A    between atoms: _14  and  _15
REMARK    8  A    between atoms: _18  and  _20
REMARK    9  A    between atoms: _20  and  _21
REMARK   10  A    between atoms: _23  and  _25
REMARK   11  A    between atoms: _25  and  _26
REMARK   12  A    between atoms: _25  and  _28
REMARK   13  A    between atoms: _28  and  _29
REMARK   14  A    between atoms: _29  and  _30
REMARK   15  A    between atoms: _30  and  _31
REMARK   16  A    between atoms: _31  and  _32
REMARK   17  A    between atoms: _36  and  _38
REMARK   18  A    between atoms: _38  and  _39
REMARK   19  A    between atoms: _41  and  _43
REMARK   20  A    between atoms: _43  and  _44
REMARK   21  A    between atoms: _43  and  _46
REMARK   22  A    between atoms: _46  and  _47
REMARK   23  A    between atoms: _49  and  _51
REMARK   24  A    between atoms: _51  and  _52
REMARK   25  A    between atoms: _51  and  _54
REMARK   26  A    between atoms: _54  and  _55
REMARK   27  A    between atoms: _61  and  _63
REMARK   28  A    between atoms: _63  and  _64
REMARK   29  A    between atoms: _66  and  _68
REMARK   30  A    between atoms: _68  and  _69
REMARK   31  A    between atoms: _68  and  _71
REMARK   32  A    between atoms: _71  and  _72
REMARK   33  A    between atoms: _72  and  _73
REMARK   34  A    between atoms: _76  and  _78
REMARK   35  A    between atoms: _78  and  _79
REMARK   36  A    between atoms: _78  and  _81
REMARK   37  A    between atoms: _84  and  _86
REMARK   38  A    between atoms: _86  and  _87
REMARK   39  A    between atoms: _86  and  _89
REMARK   40  A    between atoms: _89  and  _90
REMARK   41  A    between atoms: _93  and  _95
REMARK   42  A    between atoms: _95  and  _96
REMARK   43  A    between atoms: _95  and  _98
REMARK   44  A    between atoms: _98  and  _99
REMARK   45  A    between atoms: _102  and  _104
REMARK   46  A    between atoms: _104  and  _105
REMARK   47  A    between atoms: _104  and  _107
REMARK   48  A    between atoms: _109  and  _111
REMARK   49  A    between atoms: _111  and  _112
REMARK   50  A    between atoms: _115  and  _117
REMARK   51  A    between atoms: _117  and  _118
REMARK   52  A    between atoms: _117  and  _120
REMARK   53  A    between atoms: _123  and  _125
REMARK   54  A    between atoms: _125  and  _126
REMARK   55  A    between atoms: _125  and  _128
REMARK   56  A    between atoms: _128  and  _129
REMARK   57  A    between atoms: _129  and  _130
REMARK   58  A    between atoms: _130  and  _131
REMARK   59  A    between atoms: _131  and  _132
REMARK   60  A    between atoms: _136  and  _138
REMARK   61  A    between atoms: _138  and  _139
REMARK   62  A    between atoms: _138  and  _141
REMARK   63  A    between atoms: _144  and  _146
REMARK   64  A    between atoms: _146  and  _147
REMARK   65  A    between atoms: _146  and  _149
REMARK   66  A    between atoms: _149  and  _150
REMARK   67  A    between atoms: _153  and  _155
REMARK   68  A    between atoms: _155  and  _156
REMARK   69  A    between atoms: _155  and  _158
REMARK   70  A    between atoms: _158  and  _159
REMARK   71  A    between atoms: _162  and  _164
REMARK   72  A    between atoms: _164  and  _165
REMARK   73  A    between atoms: _164  and  _167
REMARK   74  A    between atoms: _167  and  _168
REMARK   75  A    between atoms: _168  and  _169
REMARK   76  A    between atoms: _171  and  _173
REMARK   77  A    between atoms: _173  and  _174
REMARK   78  A    between atoms: _173  and  _176
REMARK   79  A    between atoms: _176  and  _177
REMARK   80  A    between atoms: _177  and  _178
REMARK   81  A    between atoms: _178  and  _179
REMARK   82  A    between atoms: _179  and  _180
REMARK   83  A    between atoms: _184  and  _186
REMARK   84  A    between atoms: _186  and  _187
REMARK   85  A    between atoms: _186  and  _189
REMARK   86  A    between atoms: _189  and  _190
REMARK   87  A    between atoms: _193  and  _195
REMARK   88  A    between atoms: _195  and  _196
REMARK   89  A    between atoms: _195  and  _198
REMARK   90  A    between atoms: _198  and  _199
REMARK   91  A    between atoms: _204  and  _205
REMARK   92  A    between atoms: _207  and  _209
REMARK   93  A    between atoms: _209  and  _210
REMARK   94  A    between atoms: _209  and  _212
REMARK   95  A    between atoms: _212  and  _213
REMARK   96  A    between atoms: _213  and  _214
REMARK   97  A    between atoms: _217  and  _219
REMARK   98  A    between atoms: _219  and  _220
REMARK   99  A    between atoms: _219  and  _222
REMARK  100  A    between atoms: _222  and  _223
REMARK  101  A    between atoms: _228  and  _229
REMARK  102  A    between atoms: _231  and  _233
REMARK  103  A    between atoms: _233  and  _234
REMARK  104  A    between atoms: _233  and  _236
REMARK  105  A    between atoms: _236  and  _237
REMARK  106  A    between atoms: _240  and  _242
REMARK  107  A    between atoms: _242  and  _243
REMARK  108  A    between atoms: _242  and  _245
REMARK  109  A    between atoms: _248  and  _250
REMARK  110  A    between atoms: _250  and  _251
REMARK  111  A    between atoms: _253  and  _255
REMARK  112  A    between atoms: _255  and  _256
REMARK  113  A    between atoms: _255  and  _258
REMARK  114  A    between atoms: _258  and  _259
REMARK  115  A    between atoms: _259  and  _260
REMARK  116  A    between atoms: _263  and  _265
REMARK  117  A    between atoms: _265  and  _266
REMARK  118  A    between atoms: _265  and  _268
REMARK  119  A    between atoms: _271  and  _273
REMARK  120  A    between atoms: _273  and  _274
REMARK  121  A    between atoms: _273  and  _276
REMARK  122  A    between atoms: _276  and  _277
REMARK  123  A    between atoms: _282  and  _283
REMARK  124  A    between atoms: _285  and  _287
REMARK  125  A    between atoms: _287  and  _288
REMARK  126  A    between atoms: _287  and  _290
REMARK  127  A    between atoms: _290  and  _291
REMARK  128  A    between atoms: _294  and  _296
REMARK  129  A    between atoms: _296  and  _297
REMARK  130  A    between atoms: _299  and  _301
REMARK  131  A    between atoms: _301  and  _302
REMARK  132  A    between atoms: _304  and  _306
REMARK  133  A    between atoms: _306  and  _307
REMARK  134  A    between atoms: _306  and  _309
REMARK  135  A    between atoms: _309  and  _310
REMARK  136  A    between atoms: _310  and  _311
REMARK  137  A    between atoms: _314  and  _316
REMARK  138  A    between atoms: _316  and  _317
REMARK  139  A    between atoms: _316  and  _319
REMARK  140  A    between atoms: _319  and  _320
REMARK  141  A    between atoms: _323  and  _325
REMARK  142  A    between atoms: _325  and  _326
REMARK  143  A    between atoms: _325  and  _328
REMARK  144  A    between atoms: _328  and  _329
REMARK  145  A    between atoms: _333  and  _334
REMARK  146  A    between atoms: _339  and  _341
REMARK  147  A    between atoms: _341  and  _342
REMARK  148  A    between atoms: _341  and  _344
REMARK  149  A    between atoms: _344  and  _345
REMARK  150  A    between atoms: _345  and  _346
REMARK  151  A    between atoms: _349  and  _351
REMARK  152  A    between atoms: _351  and  _352
REMARK  153  A    between atoms: _351  and  _354
REMARK  154  A    between atoms: _354  and  _355
REMARK  155  A    between atoms: _360  and  _362
REMARK  156  A    between atoms: _362  and  _363
REMARK  157  A    between atoms: _362  and  _365
REMARK  158  A    between atoms: _365  and  _366
REMARK  159  A    between atoms: _369  and  _371
REMARK  160  A    between atoms: _371  and  _372
REMARK  161  A    between atoms: _371  and  _374
REMARK  162  A    between atoms: _374  and  _375
REMARK  163  A    between atoms: _378  and  _380
REMARK  164  A    between atoms: _380  and  _381
REMARK  165  A    between atoms: _380  and  _383
REMARK  166  A    between atoms: _383  and  _384
REMARK  167  A    between atoms: _387  and  _389
REMARK  168  A    between atoms: _389  and  _390
REMARK  169  A    between atoms: _389  and  _392
REMARK  170  A    between atoms: _392  and  _393
REMARK  171  A    between atoms: _393  and  _394
REMARK  172  A    between atoms: _397  and  _399
REMARK  173  A    between atoms: _399  and  _400
REMARK  174  A    between atoms: _399  and  _402
REMARK  175  A    between atoms: _402  and  _403
REMARK  176  A    between atoms: _403  and  _404
REMARK  177  A    between atoms: _404  and  _405
REMARK  178  A    between atoms: _414  and  _416
REMARK  179  A    between atoms: _416  and  _417
REMARK  180  A    between atoms: _416  and  _419
REMARK  181  A    between atoms: _419  and  _420
REMARK  182  A    between atoms: _423  and  _425
REMARK  183  A    between atoms: _425  and  _426
REMARK  184  A    between atoms: _425  and  _428
REMARK  185  A    between atoms: _428  and  _429
REMARK  186  A    between atoms: _432  and  _434
REMARK  187  A    between atoms: _434  and  _435
REMARK  188  A    between atoms: _434  and  _437
REMARK  189  A    between atoms: _437  and  _438
REMARK  190  A    between atoms: _441  and  _443
REMARK  191  A    between atoms: _443  and  _444
REMARK  192  A    between atoms: _443  and  _446
REMARK  193  A    between atoms: _446  and  _447
REMARK  194  A    between atoms: _453  and  _455
REMARK  195  A    between atoms: _455  and  _456
REMARK  196  A    between atoms: _458  and  _460
REMARK  197  A    between atoms: _460  and  _461
REMARK  198  A    between atoms: _460  and  _463
REMARK  199  A    between atoms: _463  and  _464
REMARK  200  A    between atoms: _467  and  _469
REMARK  201  A    between atoms: _469  and  _470
REMARK  202  A    between atoms: _469  and  _472
REMARK  203  A    between atoms: _472  and  _473
REMARK  204  A    between atoms: _479  and  _481
REMARK  205  A    between atoms: _481  and  _482
REMARK  206  A    between atoms: _481  and  _484
REMARK  207  A    between atoms: _484  and  _485
REMARK  208  A    between atoms: _485  and  _486
REMARK  209  A    between atoms: _486  and  _487
REMARK  210  A    between atoms: _487  and  _488
REMARK  211  A    between atoms: _492  and  _494
REMARK  212  A    between atoms: _494  and  _495
REMARK  213  A    between atoms: _494  and  _497
REMARK  214  A    between atoms: _497  and  _498
REMARK  215  A    between atoms: _498  and  _499
REMARK                            x       y       z     vdW  Elec       q    Type
REMARK                         _______ _______ _______ _____ _____    ______ ____
ROOT
ATOM      1  O   HOH     1      16.647  12.254  26.821  0.00  0.00    +0.000 OA
ENDROOT
TORSDOF 0
REMARK  Name = ../refined-set-2016/3v5p/3v5p_pocket.pdb
REMARK  215 active torsions:
REMARK  status: ('A' for Active; 'I' for Inactive)
REMARK    1  A    between atoms: _1  and  _3
REMARK    2  A    between atoms: _3  and  _4
REMARK    3  A    between atoms: _3  and  _6
REMARK    4  A    between atoms: _9  and  _11
REMARK    5  A    between atoms: _11  and  _12
REMARK    6  A    between atoms: _11  and  _14
REMARK    7  A    between atoms: _14  and  _15
REMARK    8  A    between atoms: _18  and  _20
REMARK    9  A    between atoms: _20  and  _21
REMARK   10  A    between atoms: _23  and  _25
REMARK   11  A    between atoms: _25  and  _26
REMARK   12  A    between atoms: _25  and  _28
REMARK   13  A    between atoms: _28  and  _29
REMARK   14  A    between atoms: _29  and  _30
REMARK   15  A    between atoms: _30  and  _31
REMARK   16  A    between atoms: _31  and  _32
REMARK   17  A    between atoms: _36  and  _38
REMARK   18  A    between atoms: _38  and  _39
REMARK   19  A    between atoms: _41  and  _43
REMARK   20  A    between atoms: _43  and  _44
REMARK   21  A    between atoms: _43  and  _46
REMARK   22  A    between atoms: _46  and  _47
REMARK   23  A    between atoms: _49  and  _51
REMARK   24  A    between atoms: _51  and  _52
REMARK   25  A    between atoms: _51  and  _54
REMARK   26  A    between atoms: _54  and  _55
REMARK   27  A    between atoms: _61  and  _63
REMARK   28  A    between atoms: _63  and  _64
REMARK   29  A    between atoms: _66  and  _68
REMARK   30  A    between atoms: _68  and  _69
REMARK   31  A    between atoms: _68  and  _71
REMARK   32  A    between atoms: _71  and  _72
REMARK   33  A    between atoms: _72  and  _73
REMARK   34  A    between atoms: _76  and  _78
REMARK   35  A    between atoms: _78  and  _79
REMARK   36  A    between atoms: _78  and  _81
REMARK   37  A    between atoms: _84  and  _86
REMARK   38  A    between atoms: _86  and  _87
REMARK   39  A    between atoms: _86  and  _89
REMARK   40  A    between atoms: _89  and  _90
REMARK   41  A    between atoms: _93  and  _95
REMARK   42  A    between atoms: _95  and  _96
REMARK   43  A    between atoms: _95  and  _98
REMARK   44  A    between atoms: _98  and  _99
REMARK   45  A    between atoms: _102  and  _104
REMARK   46  A    between atoms: _104  and  _105
REMARK   47  A    between atoms: _104  and  _107
REMARK   48  A    between atoms: _109  and  _111
REMARK   49  A    between atoms: _111  and  _112
REMARK   50  A    between atoms: _115  and  _117
REMARK   51  A    between atoms: _117  and  _118
REMARK   52  A    between atoms: _117  and  _120
REMARK   53  A    between atoms: _123  and  _125
REMARK   54  A    between atoms: _125  and  _126
REMARK   55  A    between atoms: _125  and  _128
REMARK   56  A    between atoms: _128  and  _129
REMARK   57  A    between atoms: _129  and  _130
REMARK   58  A    between atoms: _130  and  _131
REMARK   59  A    between atoms: _131  and  _132
REMARK   60  A    between atoms: _136  and  _138
REMARK   61  A    between atoms: _138  and  _139
REMARK   62  A    between atoms: _138  and  _141
REMARK   63  A    between atoms: _144  and  _146
REMARK   64  A    between atoms: _146  and  _147
REMARK   65  A    between atoms: _146  and  _149
REMARK   66  A    between atoms: _149  and  _150
REMARK   67  A    between atoms: _153  and  _155
REMARK   68  A    between atoms: _155  and  _156
REMARK   69  A    between atoms: _155  and  _158
REMARK   70  A    between atoms: _158  and  _159
REMARK   71  A    between atoms: _162  and  _164
REMARK   72  A    between atoms: _164  and  _165
REMARK   73  A    between atoms: _164  and  _167
REMARK   74  A    between atoms: _167  and  _168
REMARK   75  A    between atoms: _168  and  _169
REMARK   76  A    between atoms: _171  and  _173
REMARK   77  A    between atoms: _173  and  _174
REMARK   78  A    between atoms: _173  and  _176
REMARK   79  A    between atoms: _176  and  _177
REMARK   80  A    between atoms: _177  and  _178
REMARK   81  A    between atoms: _178  and  _179
REMARK   82  A    between atoms: _179  and  _180
REMARK   83  A    between atoms: _184  and  _186
REMARK   84  A    between atoms: _186  and  _187
REMARK   85  A    between atoms: _186  and  _189
REMARK   86  A    between atoms: _189  and  _190
REMARK   87  A    between atoms: _193  and  _195
REMARK   88  A    between atoms: _195  and  _196
REMARK   89  A    between atoms: _195  and  _198
REMARK   90  A    between atoms: _198  and  _199
REMARK   91  A    between atoms: _204  and  _205
REMARK   92  A    between atoms: _207  and  _209
REMARK   93  A    between atoms: _209  and  _210
REMARK   94  A    between atoms: _209  and  _212
REMARK   95  A    between atoms: _212  and  _213
REMARK   96  A    between atoms: _213  and  _214
REMARK   97  A    between atoms: _217  and  _219
REMARK   98  A    between atoms: _219  and  _220
REMARK   99  A    between atoms: _219  and  _222
REMARK  100  A    between atoms: _222  and  _223
REMARK  101  A    between atoms: _228  and  _229
REMARK  102  A    between atoms: _231  and  _233
REMARK  103  A    between atoms: _233  and  _234
REMARK  104  A    between atoms: _233  and  _236
REMARK  105  A    between atoms: _236  and  _237
REMARK  106  A    between atoms: _240  and  _242
REMARK  107  A    between atoms: _242  and  _243
REMARK  108  A    between atoms: _242  and  _245
REMARK  109  A    between atoms: _248  and  _250
REMARK  110  A    between atoms: _250  and  _251
REMARK  111  A    between atoms: _253  and  _255
REMARK  112  A    between atoms: _255  and  _256
REMARK  113  A    between atoms: _255  and  _258
REMARK  114  A    between atoms: _258  and  _259
REMARK  115  A    between atoms: _259  and  _260
REMARK  116  A    between atoms: _263  and  _265
REMARK  117  A    between atoms: _265  and  _266
REMARK  118  A    between atoms: _265  and  _268
REMARK  119  A    between atoms: _271  and  _273
REMARK  120  A    between atoms: _273  and  _274
REMARK  121  A    between atoms: _273  and  _276
REMARK  122  A    between atoms: _276  and  _277
REMARK  123  A    between atoms: _282  and  _283
REMARK  124  A    between atoms: _285  and  _287
REMARK  125  A    between atoms: _287  and  _288
REMARK  126  A    between atoms: _287  and  _290
REMARK  127  A    between atoms: _290  and  _291
REMARK  128  A    between atoms: _294  and  _296
REMARK  129  A    between atoms: _296  and  _297
REMARK  130  A    between atoms: _299  and  _301
REMARK  131  A    between atoms: _301  and  _302
REMARK  132  A    between atoms: _304  and  _306
REMARK  133  A    between atoms: _306  and  _307
REMARK  134  A    between atoms: _306  and  _309
REMARK  135  A    between atoms: _309  and  _310
REMARK  136  A    between atoms: _310  and  _311
REMARK  137  A    between atoms: _314  and  _316
REMARK  138  A    between atoms: _316  and  _317
REMARK  139  A    between atoms: _316  and  _319
REMARK  140  A    between atoms: _319  and  _320
REMARK  141  A    between atoms: _323  and  _325
REMARK  142  A    between atoms: _325  and  _326
REMARK  143  A    between atoms: _325  and  _328
REMARK  144  A    between atoms: _328  and  _329
REMARK  145  A    between atoms: _333  and  _334
REMARK  146  A    between atoms: _339  and  _341
REMARK  147  A    between atoms: _341  and  _342
REMARK  148  A    between atoms: _341  and  _344
REMARK  149  A    between atoms: _344  and  _345
REMARK  150  A    between atoms: _345  and  _346
REMARK  151  A    between atoms: _349  and  _351
REMARK  152  A    between atoms: _351  and  _352
REMARK  153  A    between atoms: _351  and  _354
REMARK  154  A    between atoms: _354  and  _355
REMARK  155  A    between atoms: _360  and  _362
REMARK  156  A    between atoms: _362  and  _363
REMARK  157  A    between atoms: _362  and  _365
REMARK  158  A    between atoms: _365  and  _366
REMARK  159  A    between atoms: _369  and  _371
REMARK  160  A    between atoms: _371  and  _372
REMARK  161  A    between atoms: _371  and  _374
REMARK  162  A    between atoms: _374  and  _375
REMARK  163  A    between atoms: _378  and  _380
REMARK  164  A    between atoms: _380  and  _381
REMARK  165  A    between atoms: _380  and  _383
REMARK  166  A    between atoms: _383  and  _384
REMARK  167  A    between atoms: _387  and  _389
REMARK  168  A    between atoms: _389  and  _390
REMARK  169  A    between atoms: _389  and  _392
REMARK  170  A    between atoms: _392  and  _393
REMARK  171  A    between atoms: _393  and  _394
REMARK  172  A    between atoms: _397  and  _399
REMARK  173  A    between atoms: _399  and  _400
REMARK  174  A    between atoms: _399  and  _402
REMARK  175  A    between atoms: _402  and  _403
REMARK  176  A    between atoms: _403  and  _404
REMARK  177  A    between atoms: _404  and  _405
REMARK  178  A    between atoms: _414  and  _416
REMARK  179  A    between atoms: _416  and  _417
REMARK  180  A    between atoms: _416  and  _419
REMARK  181  A    between atoms: _419  and  _420
REMARK  182  A    between atoms: _423  and  _425
REMARK  183  A    between atoms: _425  and  _426
REMARK  184  A    between atoms: _425  and  _428
REMARK  185  A    between atoms: _428  and  _429
REMARK  186  A    between atoms: _432  and  _434
REMARK  187  A    between atoms: _434  and  _435
REMARK  188  A    between atoms: _434  and  _437
REMARK  189  A    between atoms: _437  and  _438
REMARK  190  A    between atoms: _441  and  _443
REMARK  191  A    between atoms: _443  and  _444
REMARK  192  A    between atoms: _443  and  _446
REMARK  193  A    between atoms: _446  and  _447
REMARK  194  A    between atoms: _453  and  _455
REMARK  195  A    between atoms: _455  and  _456
REMARK  196  A    between atoms: _458  and  _460
REMARK  197  A    between atoms: _460  and  _461
REMARK  198  A    between atoms: _460  and  _463
REMARK  199  A    between atoms: _463  and  _464
REMARK  200  A    between atoms: _467  and  _469
REMARK  201  A    between atoms: _469  and  _470
REMARK  202  A    between atoms: _469  and  _472
REMARK  203  A    between atoms: _472  and  _473
REMARK  204  A    between atoms: _479  and  _481
REMARK  205  A    between atoms: _481  and  _482
REMARK  206  A    between atoms: _481  and  _484
REMARK  207  A    between atoms: _484  and  _485
REMARK  208  A    between atoms: _485  and  _486
REMARK  209  A    between atoms: _486  and  _487
REMARK  210  A    between atoms: _487  and  _488
REMARK  211  A    between atoms: _492  and  _494
REMARK  212  A    between atoms: _494  and  _495
REMARK  213  A    between atoms: _494  and  _497
REMARK  214  A    between atoms: _497  and  _498
REMARK  215  A    between atoms: _498  and  _499
REMARK                            x       y       z     vdW  Elec       q    Type
REMARK                         _______ _______ _______ _____ _____    ______ ____
ROOT
ATOM      1  O   HOH     1      29.998  11.369  27.486  0.00  0.00    +0.000 OA
ENDROOT
TORSDOF 0
REMARK  Name = ../refined-set-2016/3v5p/3v5p_pocket.pdb
REMARK  215 active torsions:
REMARK  status: ('A' for Active; 'I' for Inactive)
REMARK    1  A    between atoms: _1  and  _3
REMARK    2  A    between atoms: _3  and  _4
REMARK    3  A    between atoms: _3  and  _6
REMARK    4  A    between atoms: _9  and  _11
REMARK    5  A    between atoms: _11  and  _12
REMARK    6  A    between atoms: _11  and  _14
REMARK    7  A    between atoms: _14  and  _15
REMARK    8  A    between atoms: _18  and  _20
REMARK    9  A    between atoms: _20  and  _21
REMARK   10  A    between atoms: _23  and  _25
REMARK   11  A    between atoms: _25  and  _26
REMARK   12  A    between atoms: _25  and  _28
REMARK   13  A    between atoms: _28  and  _29
REMARK   14  A    between atoms: _29  and  _30
REMARK   15  A    between atoms: _30  and  _31
REMARK   16  A    between atoms: _31  and  _32
REMARK   17  A    between atoms: _36  and  _38
REMARK   18  A    between atoms: _38  and  _39
REMARK   19  A    between atoms: _41  and  _43
REMARK   20  A    between atoms: _43  and  _44
REMARK   21  A    between atoms: _43  and  _46
REMARK   22  A    between atoms: _46  and  _47
REMARK   23  A    between atoms: _49  and  _51
REMARK   24  A    between atoms: _51  and  _52
REMARK   25  A    between atoms: _51  and  _54
REMARK   26  A    between atoms: _54  and  _55
REMARK   27  A    between atoms: _61  and  _63
REMARK   28  A    between atoms: _63  and  _64
REMARK   29  A    between atoms: _66  and  _68
REMARK   30  A    between atoms: _68  and  _69
REMARK   31  A    between atoms: _68  and  _71
REMARK   32  A    between atoms: _71  and  _72
REMARK   33  A    between atoms: _72  and  _73
REMARK   34  A    between atoms: _76  and  _78
REMARK   35  A    between atoms: _78  and  _79
REMARK   36  A    between atoms: _78  and  _81
REMARK   37  A    between atoms: _84  and  _86
REMARK   38  A    between atoms: _86  and  _87
REMARK   39  A    between atoms: _86  and  _89
REMARK   40  A    between atoms: _89  and  _90
REMARK   41  A    between atoms: _93  and  _95
REMARK   42  A    between atoms: _95  and  _96
REMARK   43  A    between atoms: _95  and  _98
REMARK   44  A    between atoms: _98  and  _99
REMARK   45  A    between atoms: _102  and  _104
REMARK   46  A    between atoms: _104  and  _105
REMARK   47  A    between atoms: _104  and  _107
REMARK   48  A    between atoms: _109  and  _111
REMARK   49  A    between atoms: _111  and  _112
REMARK   50  A    between atoms: _115  and  _117
REMARK   51  A    between atoms: _117  and  _118
REMARK   52  A    between atoms: _117  and  _120
REMARK   53  A    between atoms: _123  and  _125
REMARK   54  A    between atoms: _125  and  _126
REMARK   55  A    between atoms: _125  and  _128
REMARK   56  A    between atoms: _128  and  _129
REMARK   57  A    between atoms: _129  and  _130
REMARK   58  A    between atoms: _130  and  _131
REMARK   59  A    between atoms: _131  and  _132
REMARK   60  A    between atoms: _136  and  _138
REMARK   61  A    between atoms: _138  and  _139
REMARK   62  A    between atoms: _138  and  _141
REMARK   63  A    between atoms: _144  and  _146
REMARK   64  A    between atoms: _146  and  _147
REMARK   65  A    between atoms: _146  and  _149
REMARK   66  A    between atoms: _149  and  _150
REMARK   67  A    between atoms: _153  and  _155
REMARK   68  A    between atoms: _155  and  _156
REMARK   69  A    between atoms: _155  and  _158
REMARK   70  A    between atoms: _158  and  _159
REMARK   71  A    between atoms: _162  and  _164
REMARK   72  A    between atoms: _164  and  _165
REMARK   73  A    between atoms: _164  and  _167
REMARK   74  A    between atoms: _167  and  _168
REMARK   75  A    between atoms: _168  and  _169
REMARK   76  A    between atoms: _171  and  _173
REMARK   77  A    between atoms: _173  and  _174
REMARK   78  A    between atoms: _173  and  _176
REMARK   79  A    between atoms: _176  and  _177
REMARK   80  A    between atoms: _177  and  _178
REMARK   81  A    between atoms: _178  and  _179
REMARK   82  A    between atoms: _179  and  _180
REMARK   83  A    between atoms: _184  and  _186
REMARK   84  A    between atoms: _186  and  _187
REMARK   85  A    between atoms: _186  and  _189
REMARK   86  A    between atoms: _189  and  _190
REMARK   87  A    between atoms: _193  and  _195
REMARK   88  A    between atoms: _195  and  _196
REMARK   89  A    between atoms: _195  and  _198
REMARK   90  A    between atoms: _198  and  _199
REMARK   91  A    between atoms: _204  and  _205
REMARK   92  A    between atoms: _207  and  _209
REMARK   93  A    between atoms: _209  and  _210
REMARK   94  A    between atoms: _209  and  _212
REMARK   95  A    between atoms: _212  and  _213
REMARK   96  A    between atoms: _213  and  _214
REMARK   97  A    between atoms: _217  and  _219
REMARK   98  A    between atoms: _219  and  _220
REMARK   99  A    between atoms: _219  and  _222
REMARK  100  A    between atoms: _222  and  _223
REMARK  101  A    between atoms: _228  and  _229
REMARK  102  A    between atoms: _231  and  _233
REMARK  103  A    between atoms: _233  and  _234
REMARK  104  A    between atoms: _233  and  _236
REMARK  105  A    between atoms: _236  and  _237
REMARK  106  A    between atoms: _240  and  _242
REMARK  107  A    between atoms: _242  and  _243
REMARK  108  A    between atoms: _242  and  _245
REMARK  109  A    between atoms: _248  and  _250
REMARK  110  A    between atoms: _250  and  _251
REMARK  111  A    between atoms: _253  and  _255
REMARK  112  A    between atoms: _255  and  _256
REMARK  113  A    between atoms: _255  and  _258
REMARK  114  A    between atoms: _258  and  _259
REMARK  115  A    between atoms: _259  and  _260
REMARK  116  A    between atoms: _263  and  _265
REMARK  117  A    between atoms: _265  and  _266
REMARK  118  A    between atoms: _265  and  _268
REMARK  119  A    between atoms: _271  and  _273
REMARK  120  A    between atoms: _273  and  _274
REMARK  121  A    between atoms: _273  and  _276
REMARK  122  A    between atoms: _276  and  _277
REMARK  123  A    between atoms: _282  and  _283
REMARK  124  A    between atoms: _285  and  _287
REMARK  125  A    between atoms: _287  and  _288
REMARK  126  A    between atoms: _287  and  _290
REMARK  127  A    between atoms: _290  and  _291
REMARK  128  A    between atoms: _294  and  _296
REMARK  129  A    between atoms: _296  and  _297
REMARK  130  A    between atoms: _299  and  _301
REMARK  131  A    between atoms: _301  and  _302
REMARK  132  A    between atoms: _304  and  _306
REMARK  133  A    between atoms: _306  and  _307
REMARK  134  A    between atoms: _306  and  _309
REMARK  135  A    between atoms: _309  and  _310
REMARK  136  A    between atoms: _310  and  _311
REMARK  137  A    between atoms: _314  and  _316
REMARK  138  A    between atoms: _316  and  _317
REMARK  139  A    between atoms: _316  and  _319
REMARK  140  A    between atoms: _319  and  _320
REMARK  141  A    between atoms: _323  and  _325
REMARK  142  A    between atoms: _325  and  _326
REMARK  143  A    between atoms: _325  and  _328
REMARK  144  A    between atoms: _328  and  _329
REMARK  145  A    between atoms: _333  and  _334
REMARK  146  A    between atoms: _339  and  _341
REMARK  147  A    between atoms: _341  and  _342
REMARK  148  A    between atoms: _341  and  _344
REMARK  149  A    between atoms: _344  and  _345
REMARK  150  A    between atoms: _345  and  _346
REMARK  151  A    between atoms: _349  and  _351
REMARK  152  A    between atoms: _351  and  _352
REMARK  153  A    between atoms: _351  and  _354
REMARK  154  A    between atoms: _354  and  _355
REMARK  155  A    between atoms: _360  and  _362
REMARK  156  A    between atoms: _362  and  _363
REMARK  157  A    between atoms: _362  and  _365
REMARK  158  A    between atoms: _365  and  _366
REMARK  159  A    between atoms: _369  and  _371
REMARK  160  A    between atoms: _371  and  _372
REMARK  161  A    between atoms: _371  and  _374
REMARK  162  A    between atoms: _374  and  _375
REMARK  163  A    between atoms: _378  and  _380
REMARK  164  A    between atoms: _380  and  _381
REMARK  165  A    between atoms: _380  and  _383
REMARK  166  A    between atoms: _383  and  _384
REMARK  167  A    between atoms: _387  and  _389
REMARK  168  A    between atoms: _389  and  _390
REMARK  169  A    between atoms: _389  and  _392
REMARK  170  A    between atoms: _392  and  _393
REMARK  171  A    between atoms: _393  and  _394
REMARK  172  A    between atoms: _397  and  _399
REMARK  173  A    between atoms: _399  and  _400
REMARK  174  A    between atoms: _399  and  _402
REMARK  175  A    between atoms: _402  and  _403
REMARK  176  A    between atoms: _403  and  _404
REMARK  177  A    between atoms: _404  and  _405
REMARK  178  A    between atoms: _414  and  _416
REMARK  179  A    between atoms: _416  and  _417
REMARK  180  A    between atoms: _416  and  _419
REMARK  181  A    between atoms: _419  and  _420
REMARK  182  A    between atoms: _423  and  _425
REMARK  183  A    between atoms: _425  and  _426
REMARK  184  A    between atoms: _425  and  _428
REMARK  185  A    between atoms: _428  and  _429
REMARK  186  A    between atoms: _432  and  _434
REMARK  187  A    between atoms: _434  and  _435
REMARK  188  A    between atoms: _434  and  _437
REMARK  189  A    between atoms: _437  and  _438
REMARK  190  A    between atoms: _441  and  _443
REMARK  191  A    between atoms: _443  and  _444
REMARK  192  A    between atoms: _443  and  _446
REMARK  193  A    between atoms: _446  and  _447
REMARK  194  A    between atoms: _453  and  _455
REMARK  195  A    between atoms: _455  and  _456
REMARK  196  A    between atoms: _458  and  _460
REMARK  197  A    between atoms: _460  and  _461
REMARK  198  A    between atoms: _460  and  _463
REMARK  199  A    between atoms: _463  and  _464
REMARK  200  A    between atoms: _467  and  _469
REMARK  201  A    between atoms: _469  and  _470
REMARK  202  A    between atoms: _469  and  _472
REMARK  203  A    between atoms: _472  and  _473
REMARK  204  A    between atoms: _479  and  _481
REMARK  205  A    between atoms: _481  and  _482
REMARK  206  A    between atoms: _481  and  _484
REMARK  207  A    between atoms: _484  and  _485
REMARK  208  A    between atoms: _485  and  _486
REMARK  209  A    between atoms: _486  and  _487
REMARK  210  A    between atoms: _487  and  _488
REMARK  211  A    between atoms: _492  and  _494
REMARK  212  A    between atoms: _494  and  _495
REMARK  213  A    between atoms: _494  and  _497
REMARK  214  A    between atoms: _497  and  _498
REMARK  215  A    between atoms: _498  and  _499
REMARK                            x       y       z     vdW  Elec       q    Type
REMARK                         _______ _______ _______ _____ _____    ______ ____
ROOT
ATOM      1  O   HOH     1      14.829   9.910  30.129  0.00  0.00    +0.000 OA
ENDROOT
TORSDOF 0
REMARK  Name = ../refined-set-2016/3v5p/3v5p_pocket.pdb
REMARK  215 active torsions:
REMARK  status: ('A' for Active; 'I' for Inactive)
REMARK    1  A    between atoms: _1  and  _3
REMARK    2  A    between atoms: _3  and  _4
REMARK    3  A    between atoms: _3  and  _6
REMARK    4  A    between atoms: _9  and  _11
REMARK    5  A    between atoms: _11  and  _12
REMARK    6  A    between atoms: _11  and  _14
REMARK    7  A    between atoms: _14  and  _15
REMARK    8  A    between atoms: _18  and  _20
REMARK    9  A    between atoms: _20  and  _21
REMARK   10  A    between atoms: _23  and  _25
REMARK   11  A    between atoms: _25  and  _26
REMARK   12  A    between atoms: _25  and  _28
REMARK   13  A    between atoms: _28  and  _29
REMARK   14  A    between atoms: _29  and  _30
REMARK   15  A    between atoms: _30  and  _31
REMARK   16  A    between atoms: _31  and  _32
REMARK   17  A    between atoms: _36  and  _38
REMARK   18  A    between atoms: _38  and  _39
REMARK   19  A    between atoms: _41  and  _43
REMARK   20  A    between atoms: _43  and  _44
REMARK   21  A    between atoms: _43  and  _46
REMARK   22  A    between atoms: _46  and  _47
REMARK   23  A    between atoms: _49  and  _51
REMARK   24  A    between atoms: _51  and  _52
REMARK   25  A    between atoms: _51  and  _54
REMARK   26  A    between atoms: _54  and  _55
REMARK   27  A    between atoms: _61  and  _63
REMARK   28  A    between atoms: _63  and  _64
REMARK   29  A    between atoms: _66  and  _68
REMARK   30  A    between atoms: _68  and  _69
REMARK   31  A    between atoms: _68  and  _71
REMARK   32  A    between atoms: _71  and  _72
REMARK   33  A    between atoms: _72  and  _73
REMARK   34  A    between atoms: _76  and  _78
REMARK   35  A    between atoms: _78  and  _79
REMARK   36  A    between atoms: _78  and  _81
REMARK   37  A    between atoms: _84  and  _86
REMARK   38  A    between atoms: _86  and  _87
REMARK   39  A    between atoms: _86  and  _89
REMARK   40  A    between atoms: _89  and  _90
REMARK   41  A    between atoms: _93  and  _95
REMARK   42  A    between atoms: _95  and  _96
REMARK   43  A    between atoms: _95  and  _98
REMARK   44  A    between atoms: _98  and  _99
REMARK   45  A    between atoms: _102  and  _104
REMARK   46  A    between atoms: _104  and  _105
REMARK   47  A    between atoms: _104  and  _107
REMARK   48  A    between atoms: _109  and  _111
REMARK   49  A    between atoms: _111  and  _112
REMARK   50  A    between atoms: _115  and  _117
REMARK   51  A    between atoms: _117  and  _118
REMARK   52  A    between atoms: _117  and  _120
REMARK   53  A    between atoms: _123  and  _125
REMARK   54  A    between atoms: _125  and  _126
REMARK   55  A    between atoms: _125  and  _128
REMARK   56  A    between atoms: _128  and  _129
REMARK   57  A    between atoms: _129  and  _130
REMARK   58  A    between atoms: _130  and  _131
REMARK   59  A    between atoms: _131  and  _132
REMARK   60  A    between atoms: _136  and  _138
REMARK   61  A    between atoms: _138  and  _139
REMARK   62  A    between atoms: _138  and  _141
REMARK   63  A    between atoms: _144  and  _146
REMARK   64  A    between atoms: _146  and  _147
REMARK   65  A    between atoms: _146  and  _149
REMARK   66  A    between atoms: _149  and  _150
REMARK   67  A    between atoms: _153  and  _155
REMARK   68  A    between atoms: _155  and  _156
REMARK   69  A    between atoms: _155  and  _158
REMARK   70  A    between atoms: _158  and  _159
REMARK   71  A    between atoms: _162  and  _164
REMARK   72  A    between atoms: _164  and  _165
REMARK   73  A    between atoms: _164  and  _167
REMARK   74  A    between atoms: _167  and  _168
REMARK   75  A    between atoms: _168  and  _169
REMARK   76  A    between atoms: _171  and  _173
REMARK   77  A    between atoms: _173  and  _174
REMARK   78  A    between atoms: _173  and  _176
REMARK   79  A    between atoms: _176  and  _177
REMARK   80  A    between atoms: _177  and  _178
REMARK   81  A    between atoms: _178  and  _179
REMARK   82  A    between atoms: _179  and  _180
REMARK   83  A    between atoms: _184  and  _186
REMARK   84  A    between atoms: _186  and  _187
REMARK   85  A    between atoms: _186  and  _189
REMARK   86  A    between atoms: _189  and  _190
REMARK   87  A    between atoms: _193  and  _195
REMARK   88  A    between atoms: _195  and  _196
REMARK   89  A    between atoms: _195  and  _198
REMARK   90  A    between atoms: _198  and  _199
REMARK   91  A    between atoms: _204  and  _205
REMARK   92  A    between atoms: _207  and  _209
REMARK   93  A    between atoms: _209  and  _210
REMARK   94  A    between atoms: _209  and  _212
REMARK   95  A    between atoms: _212  and  _213
REMARK   96  A    between atoms: _213  and  _214
REMARK   97  A    between atoms: _217  and  _219
REMARK   98  A    between atoms: _219  and  _220
REMARK   99  A    between atoms: _219  and  _222
REMARK  100  A    between atoms: _222  and  _223
REMARK  101  A    between atoms: _228  and  _229
REMARK  102  A    between atoms: _231  and  _233
REMARK  103  A    between atoms: _233  and  _234
REMARK  104  A    between atoms: _233  and  _236
REMARK  105  A    between atoms: _236  and  _237
REMARK  106  A    between atoms: _240  and  _242
REMARK  107  A    between atoms: _242  and  _243
REMARK  108  A    between atoms: _242  and  _245
REMARK  109  A    between atoms: _248  and  _250
REMARK  110  A    between atoms: _250  and  _251
REMARK  111  A    between atoms: _253  and  _255
REMARK  112  A    between atoms: _255  and  _256
REMARK  113  A    between atoms: _255  and  _258
REMARK  114  A    between atoms: _258  and  _259
REMARK  115  A    between atoms: _259  and  _260
REMARK  116  A    between atoms: _263  and  _265
REMARK  117  A    between atoms: _265  and  _266
REMARK  118  A    between atoms: _265  and  _268
REMARK  119  A    between atoms: _271  and  _273
REMARK  120  A    between atoms: _273  and  _274
REMARK  121  A    between atoms: _273  and  _276
REMARK  122  A    between atoms: _276  and  _277
REMARK  123  A    between atoms: _282  and  _283
REMARK  124  A    between atoms: _285  and  _287
REMARK  125  A    between atoms: _287  and  _288
REMARK  126  A    between atoms: _287  and  _290
REMARK  127  A    between atoms: _290  and  _291
REMARK  128  A    between atoms: _294  and  _296
REMARK  129  A    between atoms: _296  and  _297
REMARK  130  A    between atoms: _299  and  _301
REMARK  131  A    between atoms: _301  and  _302
REMARK  132  A    between atoms: _304  and  _306
REMARK  133  A    between atoms: _306  and  _307
REMARK  134  A    between atoms: _306  and  _309
REMARK  135  A    between atoms: _309  and  _310
REMARK  136  A    between atoms: _310  and  _311
REMARK  137  A    between atoms: _314  and  _316
REMARK  138  A    between atoms: _316  and  _317
REMARK  139  A    between atoms: _316  and  _319
REMARK  140  A    between atoms: _319  and  _320
REMARK  141  A    between atoms: _323  and  _325
REMARK  142  A    between atoms: _325  and  _326
REMARK  143  A    between atoms: _325  and  _328
REMARK  144  A    between atoms: _328  and  _329
REMARK  145  A    between atoms: _333  and  _334
REMARK  146  A    between atoms: _339  and  _341
REMARK  147  A    between atoms: _341  and  _342
REMARK  148  A    between atoms: _341  and  _344
REMARK  149  A    between atoms: _344  and  _345
REMARK  150  A    between atoms: _345  and  _346
REMARK  151  A    between atoms: _349  and  _351
REMARK  152  A    between atoms: _351  and  _352
REMARK  153  A    between atoms: _351  and  _354
REMARK  154  A    between atoms: _354  and  _355
REMARK  155  A    between atoms: _360  and  _362
REMARK  156  A    between atoms: _362  and  _363
REMARK  157  A    between atoms: _362  and  _365
REMARK  158  A    between atoms: _365  and  _366
REMARK  159  A    between atoms: _369  and  _371
REMARK  160  A    between atoms: _371  and  _372
REMARK  161  A    between atoms: _371  and  _374
REMARK  162  A    between atoms: _374  and  _375
REMARK  163  A    between atoms: _378  and  _380
REMARK  164  A    between atoms: _380  and  _381
REMARK  165  A    between atoms: _380  and  _383
REMARK  166  A    between atoms: _383  and  _384
REMARK  167  A    between atoms: _387  and  _389
REMARK  168  A    between atoms: _389  and  _390
REMARK  169  A    between atoms: _389  and  _392
REMARK  170  A    between atoms: _392  and  _393
REMARK  171  A    between atoms: _393  and  _394
REMARK  172  A    between atoms: _397  and  _399
REMARK  173  A    between atoms: _399  and  _400
REMARK  174  A    between atoms: _399  and  _402
REMARK  175  A    between atoms: _402  and  _403
REMARK  176  A    between atoms: _403  and  _404
REMARK  177  A    between atoms: _404  and  _405
REMARK  178  A    between atoms: _414  and  _416
REMARK  179  A    between atoms: _416  and  _417
REMARK  180  A    between atoms: _416  and  _419
REMARK  181  A    between atoms: _419  and  _420
REMARK  182  A    between atoms: _423  and  _425
REMARK  183  A    between atoms: _425  and  _426
REMARK  184  A    between atoms: _425  and  _428
REMARK  185  A    between atoms: _428  and  _429
REMARK  186  A    between atoms: _432  and  _434
REMARK  187  A    between atoms: _434  and  _435
REMARK  188  A    between atoms: _434  and  _437
REMARK  189  A    between atoms: _437  and  _438
REMARK  190  A    between atoms: _441  and  _443
REMARK  191  A    between atoms: _443  and  _444
REMARK  192  A    between atoms: _443  and  _446
REMARK  193  A    between atoms: _446  and  _447
REMARK  194  A    between atoms: _453  and  _455
REMARK  195  A    between atoms: _455  and  _456
REMARK  196  A    between atoms: _458  and  _460
REMARK  197  A    between atoms: _460  and  _461
REMARK  198  A    between atoms: _460  and  _463
REMARK  199  A    between atoms: _463  and  _464
REMARK  200  A    between atoms: _467  and  _469
REMARK  201  A    between atoms: _469  and  _470
REMARK  202  A    between atoms: _469  and  _472
REMARK  203  A    between atoms: _472  and  _473
REMARK  204  A    between atoms: _479  and  _481
REMARK  205  A    between atoms: _481  and  _482
REMARK  206  A    between atoms: _481  and  _484
REMARK  207  A    between atoms: _484  and  _485
REMARK  208  A    between atoms: _485  and  _486
REMARK  209  A    between atoms: _486  and  _487
REMARK  210  A    between atoms: _487  and  _488
REMARK  211  A    between atoms: _492  and  _494
REMARK  212  A    between atoms: _494  and  _495
REMARK  213  A    between atoms: _494  and  _497
REMARK  214  A    between atoms: _497  and  _498
REMARK  215  A    between atoms: _498  and  _499
REMARK                            x       y       z     vdW  Elec       q    Type
REMARK                         _______ _______ _______ _____ _____    ______ ____
ROOT
ATOM      1  O   HOH     1      23.454  17.906  30.058  0.00  0.00    +0.000 OA
ENDROOT
TORSDOF 0
REMARK  Name = ../refined-set-2016/3v5p/3v5p_pocket.pdb
REMARK  215 active torsions:
REMARK  status: ('A' for Active; 'I' for Inactive)
REMARK    1  A    between atoms: _1  and  _3
REMARK    2  A    between atoms: _3  and  _4
REMARK    3  A    between atoms: _3  and  _6
REMARK    4  A    between atoms: _9  and  _11
REMARK    5  A    between atoms: _11  and  _12
REMARK    6  A    between atoms: _11  and  _14
REMARK    7  A    between atoms: _14  and  _15
REMARK    8  A    between atoms: _18  and  _20
REMARK    9  A    between atoms: _20  and  _21
REMARK   10  A    between atoms: _23  and  _25
REMARK   11  A    between atoms: _25  and  _26
REMARK   12  A    between atoms: _25  and  _28
REMARK   13  A    between atoms: _28  and  _29
REMARK   14  A    between atoms: _29  and  _30
REMARK   15  A    between atoms: _30  and  _31
REMARK   16  A    between atoms: _31  and  _32
REMARK   17  A    between atoms: _36  and  _38
REMARK   18  A    between atoms: _38  and  _39
REMARK   19  A    between atoms: _41  and  _43
REMARK   20  A    between atoms: _43  and  _44
REMARK   21  A    between atoms: _43  and  _46
REMARK   22  A    between atoms: _46  and  _47
REMARK   23  A    between atoms: _49  and  _51
REMARK   24  A    between atoms: _51  and  _52
REMARK   25  A    between atoms: _51  and  _54
REMARK   26  A    between atoms: _54  and  _55
REMARK   27  A    between atoms: _61  and  _63
REMARK   28  A    between atoms: _63  and  _64
REMARK   29  A    between atoms: _66  and  _68
REMARK   30  A    between atoms: _68  and  _69
REMARK   31  A    between atoms: _68  and  _71
REMARK   32  A    between atoms: _71  and  _72
REMARK   33  A    between atoms: _72  and  _73
REMARK   34  A    between atoms: _76  and  _78
REMARK   35  A    between atoms: _78  and  _79
REMARK   36  A    between atoms: _78  and  _81
REMARK   37  A    between atoms: _84  and  _86
REMARK   38  A    between atoms: _86  and  _87
REMARK   39  A    between atoms: _86  and  _89
REMARK   40  A    between atoms: _89  and  _90
REMARK   41  A    between atoms: _93  and  _95
REMARK   42  A    between atoms: _95  and  _96
REMARK   43  A    between atoms: _95  and  _98
REMARK   44  A    between atoms: _98  and  _99
REMARK   45  A    between atoms: _102  and  _104
REMARK   46  A    between atoms: _104  and  _105
REMARK   47  A    between atoms: _104  and  _107
REMARK   48  A    between atoms: _109  and  _111
REMARK   49  A    between atoms: _111  and  _112
REMARK   50  A    between atoms: _115  and  _117
REMARK   51  A    between atoms: _117  and  _118
REMARK   52  A    between atoms: _117  and  _120
REMARK   53  A    between atoms: _123  and  _125
REMARK   54  A    between atoms: _125  and  _126
REMARK   55  A    between atoms: _125  and  _128
REMARK   56  A    between atoms: _128  and  _129
REMARK   57  A    between atoms: _129  and  _130
REMARK   58  A    between atoms: _130  and  _131
REMARK   59  A    between atoms: _131  and  _132
REMARK   60  A    between atoms: _136  and  _138
REMARK   61  A    between atoms: _138  and  _139
REMARK   62  A    between atoms: _138  and  _141
REMARK   63  A    between atoms: _144  and  _146
REMARK   64  A    between atoms: _146  and  _147
REMARK   65  A    between atoms: _146  and  _149
REMARK   66  A    between atoms: _149  and  _150
REMARK   67  A    between atoms: _153  and  _155
REMARK   68  A    between atoms: _155  and  _156
REMARK   69  A    between atoms: _155  and  _158
REMARK   70  A    between atoms: _158  and  _159
REMARK   71  A    between atoms: _162  and  _164
REMARK   72  A    between atoms: _164  and  _165
REMARK   73  A    between atoms: _164  and  _167
REMARK   74  A    between atoms: _167  and  _168
REMARK   75  A    between atoms: _168  and  _169
REMARK   76  A    between atoms: _171  and  _173
REMARK   77  A    between atoms: _173  and  _174
REMARK   78  A    between atoms: _173  and  _176
REMARK   79  A    between atoms: _176  and  _177
REMARK   80  A    between atoms: _177  and  _178
REMARK   81  A    between atoms: _178  and  _179
REMARK   82  A    between atoms: _179  and  _180
REMARK   83  A    between atoms: _184  and  _186
REMARK   84  A    between atoms: _186  and  _187
REMARK   85  A    between atoms: _186  and  _189
REMARK   86  A    between atoms: _189  and  _190
REMARK   87  A    between atoms: _193  and  _195
REMARK   88  A    between atoms: _195  and  _196
REMARK   89  A    between atoms: _195  and  _198
REMARK   90  A    between atoms: _198  and  _199
REMARK   91  A    between atoms: _204  and  _205
REMARK   92  A    between atoms: _207  and  _209
REMARK   93  A    between atoms: _209  and  _210
REMARK   94  A    between atoms: _209  and  _212
REMARK   95  A    between atoms: _212  and  _213
REMARK   96  A    between atoms: _213  and  _214
REMARK   97  A    between atoms: _217  and  _219
REMARK   98  A    between atoms: _219  and  _220
REMARK   99  A    between atoms: _219  and  _222
REMARK  100  A    between atoms: _222  and  _223
REMARK  101  A    between atoms: _228  and  _229
REMARK  102  A    between atoms: _231  and  _233
REMARK  103  A    between atoms: _233  and  _234
REMARK  104  A    between atoms: _233  and  _236
REMARK  105  A    between atoms: _236  and  _237
REMARK  106  A    between atoms: _240  and  _242
REMARK  107  A    between atoms: _242  and  _243
REMARK  108  A    between atoms: _242  and  _245
REMARK  109  A    between atoms: _248  and  _250
REMARK  110  A    between atoms: _250  and  _251
REMARK  111  A    between atoms: _253  and  _255
REMARK  112  A    between atoms: _255  and  _256
REMARK  113  A    between atoms: _255  and  _258
REMARK  114  A    between atoms: _258  and  _259
REMARK  115  A    between atoms: _259  and  _260
REMARK  116  A    between atoms: _263  and  _265
REMARK  117  A    between atoms: _265  and  _266
REMARK  118  A    between atoms: _265  and  _268
REMARK  119  A    between atoms: _271  and  _273
REMARK  120  A    between atoms: _273  and  _274
REMARK  121  A    between atoms: _273  and  _276
REMARK  122  A    between atoms: _276  and  _277
REMARK  123  A    between atoms: _282  and  _283
REMARK  124  A    between atoms: _285  and  _287
REMARK  125  A    between atoms: _287  and  _288
REMARK  126  A    between atoms: _287  and  _290
REMARK  127  A    between atoms: _290  and  _291
REMARK  128  A    between atoms: _294  and  _296
REMARK  129  A    between atoms: _296  and  _297
REMARK  130  A    between atoms: _299  and  _301
REMARK  131  A    between atoms: _301  and  _302
REMARK  132  A    between atoms: _304  and  _306
REMARK  133  A    between atoms: _306  and  _307
REMARK  134  A    between atoms: _306  and  _309
REMARK  135  A    between atoms: _309  and  _310
REMARK  136  A    between atoms: _310  and  _311
REMARK  137  A    between atoms: _314  and  _316
REMARK  138  A    between atoms: _316  and  _317
REMARK  139  A    between atoms: _316  and  _319
REMARK  140  A    between atoms: _319  and  _320
REMARK  141  A    between atoms: _323  and  _325
REMARK  142  A    between atoms: _325  and  _326
REMARK  143  A    between atoms: _325  and  _328
REMARK  144  A    between atoms: _328  and  _329
REMARK  145  A    between atoms: _333  and  _334
REMARK  146  A    between atoms: _339  and  _341
REMARK  147  A    between atoms: _341  and  _342
REMARK  148  A    between atoms: _341  and  _344
REMARK  149  A    between atoms: _344  and  _345
REMARK  150  A    between atoms: _345  and  _346
REMARK  151  A    between atoms: _349  and  _351
REMARK  152  A    between atoms: _351  and  _352
REMARK  153  A    between atoms: _351  and  _354
REMARK  154  A    between atoms: _354  and  _355
REMARK  155  A    between atoms: _360  and  _362
REMARK  156  A    between atoms: _362  and  _363
REMARK  157  A    between atoms: _362  and  _365
REMARK  158  A    between atoms: _365  and  _366
REMARK  159  A    between atoms: _369  and  _371
REMARK  160  A    between atoms: _371  and  _372
REMARK  161  A    between atoms: _371  and  _374
REMARK  162  A    between atoms: _374  and  _375
REMARK  163  A    between atoms: _378  and  _380
REMARK  164  A    between atoms: _380  and  _381
REMARK  165  A    between atoms: _380  and  _383
REMARK  166  A    between atoms: _383  and  _384
REMARK  167  A    between atoms: _387  and  _389
REMARK  168  A    between atoms: _389  and  _390
REMARK  169  A    between atoms: _389  and  _392
REMARK  170  A    between atoms: _392  and  _393
REMARK  171  A    between atoms: _393  and  _394
REMARK  172  A    between atoms: _397  and  _399
REMARK  173  A    between atoms: _399  and  _400
REMARK  174  A    between atoms: _399  and  _402
REMARK  175  A    between atoms: _402  and  _403
REMARK  176  A    between atoms: _403  and  _404
REMARK  177  A    between atoms: _404  and  _405
REMARK  178  A    between atoms: _414  and  _416
REMARK  179  A    between atoms: _416  and  _417
REMARK  180  A    between atoms: _416  and  _419
REMARK  181  A    between atoms: _419  and  _420
REMARK  182  A    between atoms: _423  and  _425
REMARK  183  A    between atoms: _425  and  _426
REMARK  184  A    between atoms: _425  and  _428
REMARK  185  A    between atoms: _428  and  _429
REMARK  186  A    between atoms: _432  and  _434
REMARK  187  A    between atoms: _434  and  _435
REMARK  188  A    between atoms: _434  and  _437
REMARK  189  A    between atoms: _437  and  _438
REMARK  190  A    between atoms: _441  and  _443
REMARK  191  A    between atoms: _443  and  _444
REMARK  192  A    between atoms: _443  and  _446
REMARK  193  A    between atoms: _446  and  _447
REMARK  194  A    between atoms: _453  and  _455
REMARK  195  A    between atoms: _455  and  _456
REMARK  196  A    between atoms: _458  and  _460
REMARK  197  A    between atoms: _460  and  _461
REMARK  198  A    between atoms: _460  and  _463
REMARK  199  A    between atoms: _463  and  _464
REMARK  200  A    between atoms: _467  and  _469
REMARK  201  A    between atoms: _469  and  _470
REMARK  202  A    between atoms: _469  and  _472
REMARK  203  A    between atoms: _472  and  _473
REMARK  204  A    between atoms: _479  and  _481
REMARK  205  A    between atoms: _481  and  _482
REMARK  206  A    between atoms: _481  and  _484
REMARK  207  A    between atoms: _484  and  _485
REMARK  208  A    between atoms: _485  and  _486
REMARK  209  A    between atoms: _486  and  _487
REMARK  210  A    between atoms: _487  and  _488
REMARK  211  A    between atoms: _492  and  _494
REMARK  212  A    between atoms: _494  and  _495
REMARK  213  A    between atoms: _494  and  _497
REMARK  214  A    between atoms: _497  and  _498
REMARK  215  A    between atoms: _498  and  _499
REMARK                            x       y       z     vdW  Elec       q    Type
REMARK                         _______ _______ _______ _____ _____    ______ ____
ROOT
ATOM      1  O   HOH     1      24.421  18.782  27.416  0.00  0.00    +0.000 OA
ENDROOT
TORSDOF 0
REMARK  Name = ../refined-set-2016/3v5p/3v5p_pocket.pdb
REMARK  215 active torsions:
REMARK  status: ('A' for Active; 'I' for Inactive)
REMARK    1  A    between atoms: _1  and  _3
REMARK    2  A    between atoms: _3  and  _4
REMARK    3  A    between atoms: _3  and  _6
REMARK    4  A    between atoms: _9  and  _11
REMARK    5  A    between atoms: _11  and  _12
REMARK    6  A    between atoms: _11  and  _14
REMARK    7  A    between atoms: _14  and  _15
REMARK    8  A    between atoms: _18  and  _20
REMARK    9  A    between atoms: _20  and  _21
REMARK   10  A    between atoms: _23  and  _25
REMARK   11  A    between atoms: _25  and  _26
REMARK   12  A    between atoms: _25  and  _28
REMARK   13  A    between atoms: _28  and  _29
REMARK   14  A    between atoms: _29  and  _30
REMARK   15  A    between atoms: _30  and  _31
REMARK   16  A    between atoms: _31  and  _32
REMARK   17  A    between atoms: _36  and  _38
REMARK   18  A    between atoms: _38  and  _39
REMARK   19  A    between atoms: _41  and  _43
REMARK   20  A    between atoms: _43  and  _44
REMARK   21  A    between atoms: _43  and  _46
REMARK   22  A    between atoms: _46  and  _47
REMARK   23  A    between atoms: _49  and  _51
REMARK   24  A    between atoms: _51  and  _52
REMARK   25  A    between atoms: _51  and  _54
REMARK   26  A    between atoms: _54  and  _55
REMARK   27  A    between atoms: _61  and  _63
REMARK   28  A    between atoms: _63  and  _64
REMARK   29  A    between atoms: _66  and  _68
REMARK   30  A    between atoms: _68  and  _69
REMARK   31  A    between atoms: _68  and  _71
REMARK   32  A    between atoms: _71  and  _72
REMARK   33  A    between atoms: _72  and  _73
REMARK   34  A    between atoms: _76  and  _78
REMARK   35  A    between atoms: _78  and  _79
REMARK   36  A    between atoms: _78  and  _81
REMARK   37  A    between atoms: _84  and  _86
REMARK   38  A    between atoms: _86  and  _87
REMARK   39  A    between atoms: _86  and  _89
REMARK   40  A    between atoms: _89  and  _90
REMARK   41  A    between atoms: _93  and  _95
REMARK   42  A    between atoms: _95  and  _96
REMARK   43  A    between atoms: _95  and  _98
REMARK   44  A    between atoms: _98  and  _99
REMARK   45  A    between atoms: _102  and  _104
REMARK   46  A    between atoms: _104  and  _105
REMARK   47  A    between atoms: _104  and  _107
REMARK   48  A    between atoms: _109  and  _111
REMARK   49  A    between atoms: _111  and  _112
REMARK   50  A    between atoms: _115  and  _117
REMARK   51  A    between atoms: _117  and  _118
REMARK   52  A    between atoms: _117  and  _120
REMARK   53  A    between atoms: _123  and  _125
REMARK   54  A    between atoms: _125  and  _126
REMARK   55  A    between atoms: _125  and  _128
REMARK   56  A    between atoms: _128  and  _129
REMARK   57  A    between atoms: _129  and  _130
REMARK   58  A    between atoms: _130  and  _131
REMARK   59  A    between atoms: _131  and  _132
REMARK   60  A    between atoms: _136  and  _138
REMARK   61  A    between atoms: _138  and  _139
REMARK   62  A    between atoms: _138  and  _141
REMARK   63  A    between atoms: _144  and  _146
REMARK   64  A    between atoms: _146  and  _147
REMARK   65  A    between atoms: _146  and  _149
REMARK   66  A    between atoms: _149  and  _150
REMARK   67  A    between atoms: _153  and  _155
REMARK   68  A    between atoms: _155  and  _156
REMARK   69  A    between atoms: _155  and  _158
REMARK   70  A    between atoms: _158  and  _159
REMARK   71  A    between atoms: _162  and  _164
REMARK   72  A    between atoms: _164  and  _165
REMARK   73  A    between atoms: _164  and  _167
REMARK   74  A    between atoms: _167  and  _168
REMARK   75  A    between atoms: _168  and  _169
REMARK   76  A    between atoms: _171  and  _173
REMARK   77  A    between atoms: _173  and  _174
REMARK   78  A    between atoms: _173  and  _176
REMARK   79  A    between atoms: _176  and  _177
REMARK   80  A    between atoms: _177  and  _178
REMARK   81  A    between atoms: _178  and  _179
REMARK   82  A    between atoms: _179  and  _180
REMARK   83  A    between atoms: _184  and  _186
REMARK   84  A    between atoms: _186  and  _187
REMARK   85  A    between atoms: _186  and  _189
REMARK   86  A    between atoms: _189  and  _190
REMARK   87  A    between atoms: _193  and  _195
REMARK   88  A    between atoms: _195  and  _196
REMARK   89  A    between atoms: _195  and  _198
REMARK   90  A    between atoms: _198  and  _199
REMARK   91  A    between atoms: _204  and  _205
REMARK   92  A    between atoms: _207  and  _209
REMARK   93  A    between atoms: _209  and  _210
REMARK   94  A    between atoms: _209  and  _212
REMARK   95  A    between atoms: _212  and  _213
REMARK   96  A    between atoms: _213  and  _214
REMARK   97  A    between atoms: _217  and  _219
REMARK   98  A    between atoms: _219  and  _220
REMARK   99  A    between atoms: _219  and  _222
REMARK  100  A    between atoms: _222  and  _223
REMARK  101  A    between atoms: _228  and  _229
REMARK  102  A    between atoms: _231  and  _233
REMARK  103  A    between atoms: _233  and  _234
REMARK  104  A    between atoms: _233  and  _236
REMARK  105  A    between atoms: _236  and  _237
REMARK  106  A    between atoms: _240  and  _242
REMARK  107  A    between atoms: _242  and  _243
REMARK  108  A    between atoms: _242  and  _245
REMARK  109  A    between atoms: _248  and  _250
REMARK  110  A    between atoms: _250  and  _251
REMARK  111  A    between atoms: _253  and  _255
REMARK  112  A    between atoms: _255  and  _256
REMARK  113  A    between atoms: _255  and  _258
REMARK  114  A    between atoms: _258  and  _259
REMARK  115  A    between atoms: _259  and  _260
REMARK  116  A    between atoms: _263  and  _265
REMARK  117  A    between atoms: _265  and  _266
REMARK  118  A    between atoms: _265  and  _268
REMARK  119  A    between atoms: _271  and  _273
REMARK  120  A    between atoms: _273  and  _274
REMARK  121  A    between atoms: _273  and  _276
REMARK  122  A    between atoms: _276  and  _277
REMARK  123  A    between atoms: _282  and  _283
REMARK  124  A    between atoms: _285  and  _287
REMARK  125  A    between atoms: _287  and  _288
REMARK  126  A    between atoms: _287  and  _290
REMARK  127  A    between atoms: _290  and  _291
REMARK  128  A    between atoms: _294  and  _296
REMARK  129  A    between atoms: _296  and  _297
REMARK  130  A    between atoms: _299  and  _301
REMARK  131  A    between atoms: _301  and  _302
REMARK  132  A    between atoms: _304  and  _306
REMARK  133  A    between atoms: _306  and  _307
REMARK  134  A    between atoms: _306  and  _309
REMARK  135  A    between atoms: _309  and  _310
REMARK  136  A    between atoms: _310  and  _311
REMARK  137  A    between atoms: _314  and  _316
REMARK  138  A    between atoms: _316  and  _317
REMARK  139  A    between atoms: _316  and  _319
REMARK  140  A    between atoms: _319  and  _320
REMARK  141  A    between atoms: _323  and  _325
REMARK  142  A    between atoms: _325  and  _326
REMARK  143  A    between atoms: _325  and  _328
REMARK  144  A    between atoms: _328  and  _329
REMARK  145  A    between atoms: _333  and  _334
REMARK  146  A    between atoms: _339  and  _341
REMARK  147  A    between atoms: _341  and  _342
REMARK  148  A    between atoms: _341  and  _344
REMARK  149  A    between atoms: _344  and  _345
REMARK  150  A    between atoms: _345  and  _346
REMARK  151  A    between atoms: _349  and  _351
REMARK  152  A    between atoms: _351  and  _352
REMARK  153  A    between atoms: _351  and  _354
REMARK  154  A    between atoms: _354  and  _355
REMARK  155  A    between atoms: _360  and  _362
REMARK  156  A    between atoms: _362  and  _363
REMARK  157  A    between atoms: _362  and  _365
REMARK  158  A    between atoms: _365  and  _366
REMARK  159  A    between atoms: _369  and  _371
REMARK  160  A    between atoms: _371  and  _372
REMARK  161  A    between atoms: _371  and  _374
REMARK  162  A    between atoms: _374  and  _375
REMARK  163  A    between atoms: _378  and  _380
REMARK  164  A    between atoms: _380  and  _381
REMARK  165  A    between atoms: _380  and  _383
REMARK  166  A    between atoms: _383  and  _384
REMARK  167  A    between atoms: _387  and  _389
REMARK  168  A    between atoms: _389  and  _390
REMARK  169  A    between atoms: _389  and  _392
REMARK  170  A    between atoms: _392  and  _393
REMARK  171  A    between atoms: _393  and  _394
REMARK  172  A    between atoms: _397  and  _399
REMARK  173  A    between atoms: _399  and  _400
REMARK  174  A    between atoms: _399  and  _402
REMARK  175  A    between atoms: _402  and  _403
REMARK  176  A    between atoms: _403  and  _404
REMARK  177  A    between atoms: _404  and  _405
REMARK  178  A    between atoms: _414  and  _416
REMARK  179  A    between atoms: _416  and  _417
REMARK  180  A    between atoms: _416  and  _419
REMARK  181  A    between atoms: _419  and  _420
REMARK  182  A    between atoms: _423  and  _425
REMARK  183  A    between atoms: _425  and  _426
REMARK  184  A    between atoms: _425  and  _428
REMARK  185  A    between atoms: _428  and  _429
REMARK  186  A    between atoms: _432  and  _434
REMARK  187  A    between atoms: _434  and  _435
REMARK  188  A    between atoms: _434  and  _437
REMARK  189  A    between atoms: _437  and  _438
REMARK  190  A    between atoms: _441  and  _443
REMARK  191  A    between atoms: _443  and  _444
REMARK  192  A    between atoms: _443  and  _446
REMARK  193  A    between atoms: _446  and  _447
REMARK  194  A    between atoms: _453  and  _455
REMARK  195  A    between atoms: _455  and  _456
REMARK  196  A    between atoms: _458  and  _460
REMARK  197  A    between atoms: _460  and  _461
REMARK  198  A    between atoms: _460  and  _463
REMARK  199  A    between atoms: _463  and  _464
REMARK  200  A    between atoms: _467  and  _469
REMARK  201  A    between atoms: _469  and  _470
REMARK  202  A    between atoms: _469  and  _472
REMARK  203  A    between atoms: _472  and  _473
REMARK  204  A    between atoms: _479  and  _481
REMARK  205  A    between atoms: _481  and  _482
REMARK  206  A    between atoms: _481  and  _484
REMARK  207  A    between atoms: _484  and  _485
REMARK  208  A    between atoms: _485  and  _486
REMARK  209  A    between atoms: _486  and  _487
REMARK  210  A    between atoms: _487  and  _488
REMARK  211  A    between atoms: _492  and  _494
REMARK  212  A    between atoms: _494  and  _495
REMARK  213  A    between atoms: _494  and  _497
REMARK  214  A    between atoms: _497  and  _498
REMARK  215  A    between atoms: _498  and  _499
REMARK                            x       y       z     vdW  Elec       q    Type
REMARK                         _______ _______ _______ _____ _____    ______ ____
ROOT
ATOM      1  O   HOH     1      28.526  19.098  19.941  0.00  0.00    +0.000 OA
ENDROOT
TORSDOF 0
REMARK  Name = ../refined-set-2016/3v5p/3v5p_pocket.pdb
REMARK  215 active torsions:
REMARK  status: ('A' for Active; 'I' for Inactive)
REMARK    1  A    between atoms: _1  and  _3
REMARK    2  A    between atoms: _3  and  _4
REMARK    3  A    between atoms: _3  and  _6
REMARK    4  A    between atoms: _9  and  _11
REMARK    5  A    between atoms: _11  and  _12
REMARK    6  A    between atoms: _11  and  _14
REMARK    7  A    between atoms: _14  and  _15
REMARK    8  A    between atoms: _18  and  _20
REMARK    9  A    between atoms: _20  and  _21
REMARK   10  A    between atoms: _23  and  _25
REMARK   11  A    between atoms: _25  and  _26
REMARK   12  A    between atoms: _25  and  _28
REMARK   13  A    between atoms: _28  and  _29
REMARK   14  A    between atoms: _29  and  _30
REMARK   15  A    between atoms: _30  and  _31
REMARK   16  A    between atoms: _31  and  _32
REMARK   17  A    between atoms: _36  and  _38
REMARK   18  A    between atoms: _38  and  _39
REMARK   19  A    between atoms: _41  and  _43
REMARK   20  A    between atoms: _43  and  _44
REMARK   21  A    between atoms: _43  and  _46
REMARK   22  A    between atoms: _46  and  _47
REMARK   23  A    between atoms: _49  and  _51
REMARK   24  A    between atoms: _51  and  _52
REMARK   25  A    between atoms: _51  and  _54
REMARK   26  A    between atoms: _54  and  _55
REMARK   27  A    between atoms: _61  and  _63
REMARK   28  A    between atoms: _63  and  _64
REMARK   29  A    between atoms: _66  and  _68
REMARK   30  A    between atoms: _68  and  _69
REMARK   31  A    between atoms: _68  and  _71
REMARK   32  A    between atoms: _71  and  _72
REMARK   33  A    between atoms: _72  and  _73
REMARK   34  A    between atoms: _76  and  _78
REMARK   35  A    between atoms: _78  and  _79
REMARK   36  A    between atoms: _78  and  _81
REMARK   37  A    between atoms: _84  and  _86
REMARK   38  A    between atoms: _86  and  _87
REMARK   39  A    between atoms: _86  and  _89
REMARK   40  A    between atoms: _89  and  _90
REMARK   41  A    between atoms: _93  and  _95
REMARK   42  A    between atoms: _95  and  _96
REMARK   43  A    between atoms: _95  and  _98
REMARK   44  A    between atoms: _98  and  _99
REMARK   45  A    between atoms: _102  and  _104
REMARK   46  A    between atoms: _104  and  _105
REMARK   47  A    between atoms: _104  and  _107
REMARK   48  A    between atoms: _109  and  _111
REMARK   49  A    between atoms: _111  and  _112
REMARK   50  A    between atoms: _115  and  _117
REMARK   51  A    between atoms: _117  and  _118
REMARK   52  A    between atoms: _117  and  _120
REMARK   53  A    between atoms: _123  and  _125
REMARK   54  A    between atoms: _125  and  _126
REMARK   55  A    between atoms: _125  and  _128
REMARK   56  A    between atoms: _128  and  _129
REMARK   57  A    between atoms: _129  and  _130
REMARK   58  A    between atoms: _130  and  _131
REMARK   59  A    between atoms: _131  and  _132
REMARK   60  A    between atoms: _136  and  _138
REMARK   61  A    between atoms: _138  and  _139
REMARK   62  A    between atoms: _138  and  _141
REMARK   63  A    between atoms: _144  and  _146
REMARK   64  A    between atoms: _146  and  _147
REMARK   65  A    between atoms: _146  and  _149
REMARK   66  A    between atoms: _149  and  _150
REMARK   67  A    between atoms: _153  and  _155
REMARK   68  A    between atoms: _155  and  _156
REMARK   69  A    between atoms: _155  and  _158
REMARK   70  A    between atoms: _158  and  _159
REMARK   71  A    between atoms: _162  and  _164
REMARK   72  A    between atoms: _164  and  _165
REMARK   73  A    between atoms: _164  and  _167
REMARK   74  A    between atoms: _167  and  _168
REMARK   75  A    between atoms: _168  and  _169
REMARK   76  A    between atoms: _171  and  _173
REMARK   77  A    between atoms: _173  and  _174
REMARK   78  A    between atoms: _173  and  _176
REMARK   79  A    between atoms: _176  and  _177
REMARK   80  A    between atoms: _177  and  _178
REMARK   81  A    between atoms: _178  and  _179
REMARK   82  A    between atoms: _179  and  _180
REMARK   83  A    between atoms: _184  and  _186
REMARK   84  A    between atoms: _186  and  _187
REMARK   85  A    between atoms: _186  and  _189
REMARK   86  A    between atoms: _189  and  _190
REMARK   87  A    between atoms: _193  and  _195
REMARK   88  A    between atoms: _195  and  _196
REMARK   89  A    between atoms: _195  and  _198
REMARK   90  A    between atoms: _198  and  _199
REMARK   91  A    between atoms: _204  and  _205
REMARK   92  A    between atoms: _207  and  _209
REMARK   93  A    between atoms: _209  and  _210
REMARK   94  A    between atoms: _209  and  _212
REMARK   95  A    between atoms: _212  and  _213
REMARK   96  A    between atoms: _213  and  _214
REMARK   97  A    between atoms: _217  and  _219
REMARK   98  A    between atoms: _219  and  _220
REMARK   99  A    between atoms: _219  and  _222
REMARK  100  A    between atoms: _222  and  _223
REMARK  101  A    between atoms: _228  and  _229
REMARK  102  A    between atoms: _231  and  _233
REMARK  103  A    between atoms: _233  and  _234
REMARK  104  A    between atoms: _233  and  _236
REMARK  105  A    between atoms: _236  and  _237
REMARK  106  A    between atoms: _240  and  _242
REMARK  107  A    between atoms: _242  and  _243
REMARK  108  A    between atoms: _242  and  _245
REMARK  109  A    between atoms: _248  and  _250
REMARK  110  A    between atoms: _250  and  _251
REMARK  111  A    between atoms: _253  and  _255
REMARK  112  A    between atoms: _255  and  _256
REMARK  113  A    between atoms: _255  and  _258
REMARK  114  A    between atoms: _258  and  _259
REMARK  115  A    between atoms: _259  and  _260
REMARK  116  A    between atoms: _263  and  _265
REMARK  117  A    between atoms: _265  and  _266
REMARK  118  A    between atoms: _265  and  _268
REMARK  119  A    between atoms: _271  and  _273
REMARK  120  A    between atoms: _273  and  _274
REMARK  121  A    between atoms: _273  and  _276
REMARK  122  A    between atoms: _276  and  _277
REMARK  123  A    between atoms: _282  and  _283
REMARK  124  A    between atoms: _285  and  _287
REMARK  125  A    between atoms: _287  and  _288
REMARK  126  A    between atoms: _287  and  _290
REMARK  127  A    between atoms: _290  and  _291
REMARK  128  A    between atoms: _294  and  _296
REMARK  129  A    between atoms: _296  and  _297
REMARK  130  A    between atoms: _299  and  _301
REMARK  131  A    between atoms: _301  and  _302
REMARK  132  A    between atoms: _304  and  _306
REMARK  133  A    between atoms: _306  and  _307
REMARK  134  A    between atoms: _306  and  _309
REMARK  135  A    between atoms: _309  and  _310
REMARK  136  A    between atoms: _310  and  _311
REMARK  137  A    between atoms: _314  and  _316
REMARK  138  A    between atoms: _316  and  _317
REMARK  139  A    between atoms: _316  and  _319
REMARK  140  A    between atoms: _319  and  _320
REMARK  141  A    between atoms: _323  and  _325
REMARK  142  A    between atoms: _325  and  _326
REMARK  143  A    between atoms: _325  and  _328
REMARK  144  A    between atoms: _328  and  _329
REMARK  145  A    between atoms: _333  and  _334
REMARK  146  A    between atoms: _339  and  _341
REMARK  147  A    between atoms: _341  and  _342
REMARK  148  A    between atoms: _341  and  _344
REMARK  149  A    between atoms: _344  and  _345
REMARK  150  A    between atoms: _345  and  _346
REMARK  151  A    between atoms: _349  and  _351
REMARK  152  A    between atoms: _351  and  _352
REMARK  153  A    between atoms: _351  and  _354
REMARK  154  A    between atoms: _354  and  _355
REMARK  155  A    between atoms: _360  and  _362
REMARK  156  A    between atoms: _362  and  _363
REMARK  157  A    between atoms: _362  and  _365
REMARK  158  A    between atoms: _365  and  _366
REMARK  159  A    between atoms: _369  and  _371
REMARK  160  A    between atoms: _371  and  _372
REMARK  161  A    between atoms: _371  and  _374
REMARK  162  A    between atoms: _374  and  _375
REMARK  163  A    between atoms: _378  and  _380
REMARK  164  A    between atoms: _380  and  _381
REMARK  165  A    between atoms: _380  and  _383
REMARK  166  A    between atoms: _383  and  _384
REMARK  167  A    between atoms: _387  and  _389
REMARK  168  A    between atoms: _389  and  _390
REMARK  169  A    between atoms: _389  and  _392
REMARK  170  A    between atoms: _392  and  _393
REMARK  171  A    between atoms: _393  and  _394
REMARK  172  A    between atoms: _397  and  _399
REMARK  173  A    between atoms: _399  and  _400
REMARK  174  A    between atoms: _399  and  _402
REMARK  175  A    between atoms: _402  and  _403
REMARK  176  A    between atoms: _403  and  _404
REMARK  177  A    between atoms: _404  and  _405
REMARK  178  A    between atoms: _414  and  _416
REMARK  179  A    between atoms: _416  and  _417
REMARK  180  A    between atoms: _416  and  _419
REMARK  181  A    between atoms: _419  and  _420
REMARK  182  A    between atoms: _423  and  _425
REMARK  183  A    between atoms: _425  and  _426
REMARK  184  A    between atoms: _425  and  _428
REMARK  185  A    between atoms: _428  and  _429
REMARK  186  A    between atoms: _432  and  _434
REMARK  187  A    between atoms: _434  and  _435
REMARK  188  A    between atoms: _434  and  _437
REMARK  189  A    between atoms: _437  and  _438
REMARK  190  A    between atoms: _441  and  _443
REMARK  191  A    between atoms: _443  and  _444
REMARK  192  A    between atoms: _443  and  _446
REMARK  193  A    between atoms: _446  and  _447
REMARK  194  A    between atoms: _453  and  _455
REMARK  195  A    between atoms: _455  and  _456
REMARK  196  A    between atoms: _458  and  _460
REMARK  197  A    between atoms: _460  and  _461
REMARK  198  A    between atoms: _460  and  _463
REMARK  199  A    between atoms: _463  and  _464
REMARK  200  A    between atoms: _467  and  _469
REMARK  201  A    between atoms: _469  and  _470
REMARK  202  A    between atoms: _469  and  _472
REMARK  203  A    between atoms: _472  and  _473
REMARK  204  A    between atoms: _479  and  _481
REMARK  205  A    between atoms: _481  and  _482
REMARK  206  A    between atoms: _481  and  _484
REMARK  207  A    between atoms: _484  and  _485
REMARK  208  A    between atoms: _485  and  _486
REMARK  209  A    between atoms: _486  and  _487
REMARK  210  A    between atoms: _487  and  _488
REMARK  211  A    between atoms: _492  and  _494
REMARK  212  A    between atoms: _494  and  _495
REMARK  213  A    between atoms: _494  and  _497
REMARK  214  A    between atoms: _497  and  _498
REMARK  215  A    between atoms: _498  and  _499
REMARK                            x       y       z     vdW  Elec       q    Type
REMARK                         _______ _______ _______ _____ _____    ______ ____
ROOT
ATOM      1  O   HOH     1      25.537   4.675  34.909  0.00  0.00    +0.000 OA
ENDROOT
TORSDOF 0
REMARK  Name = ../refined-set-2016/3v5p/3v5p_pocket.pdb
REMARK  215 active torsions:
REMARK  status: ('A' for Active; 'I' for Inactive)
REMARK    1  A    between atoms: _1  and  _3
REMARK    2  A    between atoms: _3  and  _4
REMARK    3  A    between atoms: _3  and  _6
REMARK    4  A    between atoms: _9  and  _11
REMARK    5  A    between atoms: _11  and  _12
REMARK    6  A    between atoms: _11  and  _14
REMARK    7  A    between atoms: _14  and  _15
REMARK    8  A    between atoms: _18  and  _20
REMARK    9  A    between atoms: _20  and  _21
REMARK   10  A    between atoms: _23  and  _25
REMARK   11  A    between atoms: _25  and  _26
REMARK   12  A    between atoms: _25  and  _28
REMARK   13  A    between atoms: _28  and  _29
REMARK   14  A    between atoms: _29  and  _30
REMARK   15  A    between atoms: _30  and  _31
REMARK   16  A    between atoms: _31  and  _32
REMARK   17  A    between atoms: _36  and  _38
REMARK   18  A    between atoms: _38  and  _39
REMARK   19  A    between atoms: _41  and  _43
REMARK   20  A    between atoms: _43  and  _44
REMARK   21  A    between atoms: _43  and  _46
REMARK   22  A    between atoms: _46  and  _47
REMARK   23  A    between atoms: _49  and  _51
REMARK   24  A    between atoms: _51  and  _52
REMARK   25  A    between atoms: _51  and  _54
REMARK   26  A    between atoms: _54  and  _55
REMARK   27  A    between atoms: _61  and  _63
REMARK   28  A    between atoms: _63  and  _64
REMARK   29  A    between atoms: _66  and  _68
REMARK   30  A    between atoms: _68  and  _69
REMARK   31  A    between atoms: _68  and  _71
REMARK   32  A    between atoms: _71  and  _72
REMARK   33  A    between atoms: _72  and  _73
REMARK   34  A    between atoms: _76  and  _78
REMARK   35  A    between atoms: _78  and  _79
REMARK   36  A    between atoms: _78  and  _81
REMARK   37  A    between atoms: _84  and  _86
REMARK   38  A    between atoms: _86  and  _87
REMARK   39  A    between atoms: _86  and  _89
REMARK   40  A    between atoms: _89  and  _90
REMARK   41  A    between atoms: _93  and  _95
REMARK   42  A    between atoms: _95  and  _96
REMARK   43  A    between atoms: _95  and  _98
REMARK   44  A    between atoms: _98  and  _99
REMARK   45  A    between atoms: _102  and  _104
REMARK   46  A    between atoms: _104  and  _105
REMARK   47  A    between atoms: _104  and  _107
REMARK   48  A    between atoms: _109  and  _111
REMARK   49  A    between atoms: _111  and  _112
REMARK   50  A    between atoms: _115  and  _117
REMARK   51  A    between atoms: _117  and  _118
REMARK   52  A    between atoms: _117  and  _120
REMARK   53  A    between atoms: _123  and  _125
REMARK   54  A    between atoms: _125  and  _126
REMARK   55  A    between atoms: _125  and  _128
REMARK   56  A    between atoms: _128  and  _129
REMARK   57  A    between atoms: _129  and  _130
REMARK   58  A    between atoms: _130  and  _131
REMARK   59  A    between atoms: _131  and  _132
REMARK   60  A    between atoms: _136  and  _138
REMARK   61  A    between atoms: _138  and  _139
REMARK   62  A    between atoms: _138  and  _141
REMARK   63  A    between atoms: _144  and  _146
REMARK   64  A    between atoms: _146  and  _147
REMARK   65  A    between atoms: _146  and  _149
REMARK   66  A    between atoms: _149  and  _150
REMARK   67  A    between atoms: _153  and  _155
REMARK   68  A    between atoms: _155  and  _156
REMARK   69  A    between atoms: _155  and  _158
REMARK   70  A    between atoms: _158  and  _159
REMARK   71  A    between atoms: _162  and  _164
REMARK   72  A    between atoms: _164  and  _165
REMARK   73  A    between atoms: _164  and  _167
REMARK   74  A    between atoms: _167  and  _168
REMARK   75  A    between atoms: _168  and  _169
REMARK   76  A    between atoms: _171  and  _173
REMARK   77  A    between atoms: _173  and  _174
REMARK   78  A    between atoms: _173  and  _176
REMARK   79  A    between atoms: _176  and  _177
REMARK   80  A    between atoms: _177  and  _178
REMARK   81  A    between atoms: _178  and  _179
REMARK   82  A    between atoms: _179  and  _180
REMARK   83  A    between atoms: _184  and  _186
REMARK   84  A    between atoms: _186  and  _187
REMARK   85  A    between atoms: _186  and  _189
REMARK   86  A    between atoms: _189  and  _190
REMARK   87  A    between atoms: _193  and  _195
REMARK   88  A    between atoms: _195  and  _196
REMARK   89  A    between atoms: _195  and  _198
REMARK   90  A    between atoms: _198  and  _199
REMARK   91  A    between atoms: _204  and  _205
REMARK   92  A    between atoms: _207  and  _209
REMARK   93  A    between atoms: _209  and  _210
REMARK   94  A    between atoms: _209  and  _212
REMARK   95  A    between atoms: _212  and  _213
REMARK   96  A    between atoms: _213  and  _214
REMARK   97  A    between atoms: _217  and  _219
REMARK   98  A    between atoms: _219  and  _220
REMARK   99  A    between atoms: _219  and  _222
REMARK  100  A    between atoms: _222  and  _223
REMARK  101  A    between atoms: _228  and  _229
REMARK  102  A    between atoms: _231  and  _233
REMARK  103  A    between atoms: _233  and  _234
REMARK  104  A    between atoms: _233  and  _236
REMARK  105  A    between atoms: _236  and  _237
REMARK  106  A    between atoms: _240  and  _242
REMARK  107  A    between atoms: _242  and  _243
REMARK  108  A    between atoms: _242  and  _245
REMARK  109  A    between atoms: _248  and  _250
REMARK  110  A    between atoms: _250  and  _251
REMARK  111  A    between atoms: _253  and  _255
REMARK  112  A    between atoms: _255  and  _256
REMARK  113  A    between atoms: _255  and  _258
REMARK  114  A    between atoms: _258  and  _259
REMARK  115  A    between atoms: _259  and  _260
REMARK  116  A    between atoms: _263  and  _265
REMARK  117  A    between atoms: _265  and  _266
REMARK  118  A    between atoms: _265  and  _268
REMARK  119  A    between atoms: _271  and  _273
REMARK  120  A    between atoms: _273  and  _274
REMARK  121  A    between atoms: _273  and  _276
REMARK  122  A    between atoms: _276  and  _277
REMARK  123  A    between atoms: _282  and  _283
REMARK  124  A    between atoms: _285  and  _287
REMARK  125  A    between atoms: _287  and  _288
REMARK  126  A    between atoms: _287  and  _290
REMARK  127  A    between atoms: _290  and  _291
REMARK  128  A    between atoms: _294  and  _296
REMARK  129  A    between atoms: _296  and  _297
REMARK  130  A    between atoms: _299  and  _301
REMARK  131  A    between atoms: _301  and  _302
REMARK  132  A    between atoms: _304  and  _306
REMARK  133  A    between atoms: _306  and  _307
REMARK  134  A    between atoms: _306  and  _309
REMARK  135  A    between atoms: _309  and  _310
REMARK  136  A    between atoms: _310  and  _311
REMARK  137  A    between atoms: _314  and  _316
REMARK  138  A    between atoms: _316  and  _317
REMARK  139  A    between atoms: _316  and  _319
REMARK  140  A    between atoms: _319  and  _320
REMARK  141  A    between atoms: _323  and  _325
REMARK  142  A    between atoms: _325  and  _326
REMARK  143  A    between atoms: _325  and  _328
REMARK  144  A    between atoms: _328  and  _329
REMARK  145  A    between atoms: _333  and  _334
REMARK  146  A    between atoms: _339  and  _341
REMARK  147  A    between atoms: _341  and  _342
REMARK  148  A    between atoms: _341  and  _344
REMARK  149  A    between atoms: _344  and  _345
REMARK  150  A    between atoms: _345  and  _346
REMARK  151  A    between atoms: _349  and  _351
REMARK  152  A    between atoms: _351  and  _352
REMARK  153  A    between atoms: _351  and  _354
REMARK  154  A    between atoms: _354  and  _355
REMARK  155  A    between atoms: _360  and  _362
REMARK  156  A    between atoms: _362  and  _363
REMARK  157  A    between atoms: _362  and  _365
REMARK  158  A    between atoms: _365  and  _366
REMARK  159  A    between atoms: _369  and  _371
REMARK  160  A    between atoms: _371  and  _372
REMARK  161  A    between atoms: _371  and  _374
REMARK  162  A    between atoms: _374  and  _375
REMARK  163  A    between atoms: _378  and  _380
REMARK  164  A    between atoms: _380  and  _381
REMARK  165  A    between atoms: _380  and  _383
REMARK  166  A    between atoms: _383  and  _384
REMARK  167  A    between atoms: _387  and  _389
REMARK  168  A    between atoms: _389  and  _390
REMARK  169  A    between atoms: _389  and  _392
REMARK  170  A    between atoms: _392  and  _393
REMARK  171  A    between atoms: _393  and  _394
REMARK  172  A    between atoms: _397  and  _399
REMARK  173  A    between atoms: _399  and  _400
REMARK  174  A    between atoms: _399  and  _402
REMARK  175  A    between atoms: _402  and  _403
REMARK  176  A    between atoms: _403  and  _404
REMARK  177  A    between atoms: _404  and  _405
REMARK  178  A    between atoms: _414  and  _416
REMARK  179  A    between atoms: _416  and  _417
REMARK  180  A    between atoms: _416  and  _419
REMARK  181  A    between atoms: _419  and  _420
REMARK  182  A    between atoms: _423  and  _425
REMARK  183  A    between atoms: _425  and  _426
REMARK  184  A    between atoms: _425  and  _428
REMARK  185  A    between atoms: _428  and  _429
REMARK  186  A    between atoms: _432  and  _434
REMARK  187  A    between atoms: _434  and  _435
REMARK  188  A    between atoms: _434  and  _437
REMARK  189  A    between atoms: _437  and  _438
REMARK  190  A    between atoms: _441  and  _443
REMARK  191  A    between atoms: _443  and  _444
REMARK  192  A    between atoms: _443  and  _446
REMARK  193  A    between atoms: _446  and  _447
REMARK  194  A    between atoms: _453  and  _455
REMARK  195  A    between atoms: _455  and  _456
REMARK  196  A    between atoms: _458  and  _460
REMARK  197  A    between atoms: _460  and  _461
REMARK  198  A    between atoms: _460  and  _463
REMARK  199  A    between atoms: _463  and  _464
REMARK  200  A    between atoms: _467  and  _469
REMARK  201  A    between atoms: _469  and  _470
REMARK  202  A    between atoms: _469  and  _472
REMARK  203  A    between atoms: _472  and  _473
REMARK  204  A    between atoms: _479  and  _481
REMARK  205  A    between atoms: _481  and  _482
REMARK  206  A    between atoms: _481  and  _484
REMARK  207  A    between atoms: _484  and  _485
REMARK  208  A    between atoms: _485  and  _486
REMARK  209  A    between atoms: _486  and  _487
REMARK  210  A    between atoms: _487  and  _488
REMARK  211  A    between atoms: _492  and  _494
REMARK  212  A    between atoms: _494  and  _495
REMARK  213  A    between atoms: _494  and  _497
REMARK  214  A    between atoms: _497  and  _498
REMARK  215  A    between atoms: _498  and  _499
REMARK                            x       y       z     vdW  Elec       q    Type
REMARK                         _______ _______ _______ _____ _____    ______ ____
ROOT
ATOM      1  O   HOH     1      16.045  11.482  29.122  0.00  0.00    +0.000 OA
ENDROOT
TORSDOF 0
REMARK  Name = ../refined-set-2016/3v5p/3v5p_pocket.pdb
REMARK  215 active torsions:
REMARK  status: ('A' for Active; 'I' for Inactive)
REMARK    1  A    between atoms: _1  and  _3
REMARK    2  A    between atoms: _3  and  _4
REMARK    3  A    between atoms: _3  and  _6
REMARK    4  A    between atoms: _9  and  _11
REMARK    5  A    between atoms: _11  and  _12
REMARK    6  A    between atoms: _11  and  _14
REMARK    7  A    between atoms: _14  and  _15
REMARK    8  A    between atoms: _18  and  _20
REMARK    9  A    between atoms: _20  and  _21
REMARK   10  A    between atoms: _23  and  _25
REMARK   11  A    between atoms: _25  and  _26
REMARK   12  A    between atoms: _25  and  _28
REMARK   13  A    between atoms: _28  and  _29
REMARK   14  A    between atoms: _29  and  _30
REMARK   15  A    between atoms: _30  and  _31
REMARK   16  A    between atoms: _31  and  _32
REMARK   17  A    between atoms: _36  and  _38
REMARK   18  A    between atoms: _38  and  _39
REMARK   19  A    between atoms: _41  and  _43
REMARK   20  A    between atoms: _43  and  _44
REMARK   21  A    between atoms: _43  and  _46
REMARK   22  A    between atoms: _46  and  _47
REMARK   23  A    between atoms: _49  and  _51
REMARK   24  A    between atoms: _51  and  _52
REMARK   25  A    between atoms: _51  and  _54
REMARK   26  A    between atoms: _54  and  _55
REMARK   27  A    between atoms: _61  and  _63
REMARK   28  A    between atoms: _63  and  _64
REMARK   29  A    between atoms: _66  and  _68
REMARK   30  A    between atoms: _68  and  _69
REMARK   31  A    between atoms: _68  and  _71
REMARK   32  A    between atoms: _71  and  _72
REMARK   33  A    between atoms: _72  and  _73
REMARK   34  A    between atoms: _76  and  _78
REMARK   35  A    between atoms: _78  and  _79
REMARK   36  A    between atoms: _78  and  _81
REMARK   37  A    between atoms: _84  and  _86
REMARK   38  A    between atoms: _86  and  _87
REMARK   39  A    between atoms: _86  and  _89
REMARK   40  A    between atoms: _89  and  _90
REMARK   41  A    between atoms: _93  and  _95
REMARK   42  A    between atoms: _95  and  _96
REMARK   43  A    between atoms: _95  and  _98
REMARK   44  A    between atoms: _98  and  _99
REMARK   45  A    between atoms: _102  and  _104
REMARK   46  A    between atoms: _104  and  _105
REMARK   47  A    between atoms: _104  and  _107
REMARK   48  A    between atoms: _109  and  _111
REMARK   49  A    between atoms: _111  and  _112
REMARK   50  A    between atoms: _115  and  _117
REMARK   51  A    between atoms: _117  and  _118
REMARK   52  A    between atoms: _117  and  _120
REMARK   53  A    between atoms: _123  and  _125
REMARK   54  A    between atoms: _125  and  _126
REMARK   55  A    between atoms: _125  and  _128
REMARK   56  A    between atoms: _128  and  _129
REMARK   57  A    between atoms: _129  and  _130
REMARK   58  A    between atoms: _130  and  _131
REMARK   59  A    between atoms: _131  and  _132
REMARK   60  A    between atoms: _136  and  _138
REMARK   61  A    between atoms: _138  and  _139
REMARK   62  A    between atoms: _138  and  _141
REMARK   63  A    between atoms: _144  and  _146
REMARK   64  A    between atoms: _146  and  _147
REMARK   65  A    between atoms: _146  and  _149
REMARK   66  A    between atoms: _149  and  _150
REMARK   67  A    between atoms: _153  and  _155
REMARK   68  A    between atoms: _155  and  _156
REMARK   69  A    between atoms: _155  and  _158
REMARK   70  A    between atoms: _158  and  _159
REMARK   71  A    between atoms: _162  and  _164
REMARK   72  A    between atoms: _164  and  _165
REMARK   73  A    between atoms: _164  and  _167
REMARK   74  A    between atoms: _167  and  _168
REMARK   75  A    between atoms: _168  and  _169
REMARK   76  A    between atoms: _171  and  _173
REMARK   77  A    between atoms: _173  and  _174
REMARK   78  A    between atoms: _173  and  _176
REMARK   79  A    between atoms: _176  and  _177
REMARK   80  A    between atoms: _177  and  _178
REMARK   81  A    between atoms: _178  and  _179
REMARK   82  A    between atoms: _179  and  _180
REMARK   83  A    between atoms: _184  and  _186
REMARK   84  A    between atoms: _186  and  _187
REMARK   85  A    between atoms: _186  and  _189
REMARK   86  A    between atoms: _189  and  _190
REMARK   87  A    between atoms: _193  and  _195
REMARK   88  A    between atoms: _195  and  _196
REMARK   89  A    between atoms: _195  and  _198
REMARK   90  A    between atoms: _198  and  _199
REMARK   91  A    between atoms: _204  and  _205
REMARK   92  A    between atoms: _207  and  _209
REMARK   93  A    between atoms: _209  and  _210
REMARK   94  A    between atoms: _209  and  _212
REMARK   95  A    between atoms: _212  and  _213
REMARK   96  A    between atoms: _213  and  _214
REMARK   97  A    between atoms: _217  and  _219
REMARK   98  A    between atoms: _219  and  _220
REMARK   99  A    between atoms: _219  and  _222
REMARK  100  A    between atoms: _222  and  _223
REMARK  101  A    between atoms: _228  and  _229
REMARK  102  A    between atoms: _231  and  _233
REMARK  103  A    between atoms: _233  and  _234
REMARK  104  A    between atoms: _233  and  _236
REMARK  105  A    between atoms: _236  and  _237
REMARK  106  A    between atoms: _240  and  _242
REMARK  107  A    between atoms: _242  and  _243
REMARK  108  A    between atoms: _242  and  _245
REMARK  109  A    between atoms: _248  and  _250
REMARK  110  A    between atoms: _250  and  _251
REMARK  111  A    between atoms: _253  and  _255
REMARK  112  A    between atoms: _255  and  _256
REMARK  113  A    between atoms: _255  and  _258
REMARK  114  A    between atoms: _258  and  _259
REMARK  115  A    between atoms: _259  and  _260
REMARK  116  A    between atoms: _263  and  _265
REMARK  117  A    between atoms: _265  and  _266
REMARK  118  A    between atoms: _265  and  _268
REMARK  119  A    between atoms: _271  and  _273
REMARK  120  A    between atoms: _273  and  _274
REMARK  121  A    between atoms: _273  and  _276
REMARK  122  A    between atoms: _276  and  _277
REMARK  123  A    between atoms: _282  and  _283
REMARK  124  A    between atoms: _285  and  _287
REMARK  125  A    between atoms: _287  and  _288
REMARK  126  A    between atoms: _287  and  _290
REMARK  127  A    between atoms: _290  and  _291
REMARK  128  A    between atoms: _294  and  _296
REMARK  129  A    between atoms: _296  and  _297
REMARK  130  A    between atoms: _299  and  _301
REMARK  131  A    between atoms: _301  and  _302
REMARK  132  A    between atoms: _304  and  _306
REMARK  133  A    between atoms: _306  and  _307
REMARK  134  A    between atoms: _306  and  _309
REMARK  135  A    between atoms: _309  and  _310
REMARK  136  A    between atoms: _310  and  _311
REMARK  137  A    between atoms: _314  and  _316
REMARK  138  A    between atoms: _316  and  _317
REMARK  139  A    between atoms: _316  and  _319
REMARK  140  A    between atoms: _319  and  _320
REMARK  141  A    between atoms: _323  and  _325
REMARK  142  A    between atoms: _325  and  _326
REMARK  143  A    between atoms: _325  and  _328
REMARK  144  A    between atoms: _328  and  _329
REMARK  145  A    between atoms: _333  and  _334
REMARK  146  A    between atoms: _339  and  _341
REMARK  147  A    between atoms: _341  and  _342
REMARK  148  A    between atoms: _341  and  _344
REMARK  149  A    between atoms: _344  and  _345
REMARK  150  A    between atoms: _345  and  _346
REMARK  151  A    between atoms: _349  and  _351
REMARK  152  A    between atoms: _351  and  _352
REMARK  153  A    between atoms: _351  and  _354
REMARK  154  A    between atoms: _354  and  _355
REMARK  155  A    between atoms: _360  and  _362
REMARK  156  A    between atoms: _362  and  _363
REMARK  157  A    between atoms: _362  and  _365
REMARK  158  A    between atoms: _365  and  _366
REMARK  159  A    between atoms: _369  and  _371
REMARK  160  A    between atoms: _371  and  _372
REMARK  161  A    between atoms: _371  and  _374
REMARK  162  A    between atoms: _374  and  _375
REMARK  163  A    between atoms: _378  and  _380
REMARK  164  A    between atoms: _380  and  _381
REMARK  165  A    between atoms: _380  and  _383
REMARK  166  A    between atoms: _383  and  _384
REMARK  167  A    between atoms: _387  and  _389
REMARK  168  A    between atoms: _389  and  _390
REMARK  169  A    between atoms: _389  and  _392
REMARK  170  A    between atoms: _392  and  _393
REMARK  171  A    between atoms: _393  and  _394
REMARK  172  A    between atoms: _397  and  _399
REMARK  173  A    between atoms: _399  and  _400
REMARK  174  A    between atoms: _399  and  _402
REMARK  175  A    between atoms: _402  and  _403
REMARK  176  A    between atoms: _403  and  _404
REMARK  177  A    between atoms: _404  and  _405
REMARK  178  A    between atoms: _414  and  _416
REMARK  179  A    between atoms: _416  and  _417
REMARK  180  A    between atoms: _416  and  _419
REMARK  181  A    between atoms: _419  and  _420
REMARK  182  A    between atoms: _423  and  _425
REMARK  183  A    between atoms: _425  and  _426
REMARK  184  A    between atoms: _425  and  _428
REMARK  185  A    between atoms: _428  and  _429
REMARK  186  A    between atoms: _432  and  _434
REMARK  187  A    between atoms: _434  and  _435
REMARK  188  A    between atoms: _434  and  _437
REMARK  189  A    between atoms: _437  and  _438
REMARK  190  A    between atoms: _441  and  _443
REMARK  191  A    between atoms: _443  and  _444
REMARK  192  A    between atoms: _443  and  _446
REMARK  193  A    between atoms: _446  and  _447
REMARK  194  A    between atoms: _453  and  _455
REMARK  195  A    between atoms: _455  and  _456
REMARK  196  A    between atoms: _458  and  _460
REMARK  197  A    between atoms: _460  and  _461
REMARK  198  A    between atoms: _460  and  _463
REMARK  199  A    between atoms: _463  and  _464
REMARK  200  A    between atoms: _467  and  _469
REMARK  201  A    between atoms: _469  and  _470
REMARK  202  A    between atoms: _469  and  _472
REMARK  203  A    between atoms: _472  and  _473
REMARK  204  A    between atoms: _479  and  _481
REMARK  205  A    between atoms: _481  and  _482
REMARK  206  A    between atoms: _481  and  _484
REMARK  207  A    between atoms: _484  and  _485
REMARK  208  A    between atoms: _485  and  _486
REMARK  209  A    between atoms: _486  and  _487
REMARK  210  A    between atoms: _487  and  _488
REMARK  211  A    between atoms: _492  and  _494
REMARK  212  A    between atoms: _494  and  _495
REMARK  213  A    between atoms: _494  and  _497
REMARK  214  A    between atoms: _497  and  _498
REMARK  215  A    between atoms: _498  and  _499
REMARK                            x       y       z     vdW  Elec       q    Type
REMARK                         _______ _______ _______ _____ _____    ______ ____
ROOT
ATOM      1  O   HOH     1      18.744  20.439  26.440  0.00  0.00    +0.000 OA
ENDROOT
TORSDOF 0
REMARK  Name = ../refined-set-2016/3v5p/3v5p_pocket.pdb
REMARK  215 active torsions:
REMARK  status: ('A' for Active; 'I' for Inactive)
REMARK    1  A    between atoms: _1  and  _3
REMARK    2  A    between atoms: _3  and  _4
REMARK    3  A    between atoms: _3  and  _6
REMARK    4  A    between atoms: _9  and  _11
REMARK    5  A    between atoms: _11  and  _12
REMARK    6  A    between atoms: _11  and  _14
REMARK    7  A    between atoms: _14  and  _15
REMARK    8  A    between atoms: _18  and  _20
REMARK    9  A    between atoms: _20  and  _21
REMARK   10  A    between atoms: _23  and  _25
REMARK   11  A    between atoms: _25  and  _26
REMARK   12  A    between atoms: _25  and  _28
REMARK   13  A    between atoms: _28  and  _29
REMARK   14  A    between atoms: _29  and  _30
REMARK   15  A    between atoms: _30  and  _31
REMARK   16  A    between atoms: _31  and  _32
REMARK   17  A    between atoms: _36  and  _38
REMARK   18  A    between atoms: _38  and  _39
REMARK   19  A    between atoms: _41  and  _43
REMARK   20  A    between atoms: _43  and  _44
REMARK   21  A    between atoms: _43  and  _46
REMARK   22  A    between atoms: _46  and  _47
REMARK   23  A    between atoms: _49  and  _51
REMARK   24  A    between atoms: _51  and  _52
REMARK   25  A    between atoms: _51  and  _54
REMARK   26  A    between atoms: _54  and  _55
REMARK   27  A    between atoms: _61  and  _63
REMARK   28  A    between atoms: _63  and  _64
REMARK   29  A    between atoms: _66  and  _68
REMARK   30  A    between atoms: _68  and  _69
REMARK   31  A    between atoms: _68  and  _71
REMARK   32  A    between atoms: _71  and  _72
REMARK   33  A    between atoms: _72  and  _73
REMARK   34  A    between atoms: _76  and  _78
REMARK   35  A    between atoms: _78  and  _79
REMARK   36  A    between atoms: _78  and  _81
REMARK   37  A    between atoms: _84  and  _86
REMARK   38  A    between atoms: _86  and  _87
REMARK   39  A    between atoms: _86  and  _89
REMARK   40  A    between atoms: _89  and  _90
REMARK   41  A    between atoms: _93  and  _95
REMARK   42  A    between atoms: _95  and  _96
REMARK   43  A    between atoms: _95  and  _98
REMARK   44  A    between atoms: _98  and  _99
REMARK   45  A    between atoms: _102  and  _104
REMARK   46  A    between atoms: _104  and  _105
REMARK   47  A    between atoms: _104  and  _107
REMARK   48  A    between atoms: _109  and  _111
REMARK   49  A    between atoms: _111  and  _112
REMARK   50  A    between atoms: _115  and  _117
REMARK   51  A    between atoms: _117  and  _118
REMARK   52  A    between atoms: _117  and  _120
REMARK   53  A    between atoms: _123  and  _125
REMARK   54  A    between atoms: _125  and  _126
REMARK   55  A    between atoms: _125  and  _128
REMARK   56  A    between atoms: _128  and  _129
REMARK   57  A    between atoms: _129  and  _130
REMARK   58  A    between atoms: _130  and  _131
REMARK   59  A    between atoms: _131  and  _132
REMARK   60  A    between atoms: _136  and  _138
REMARK   61  A    between atoms: _138  and  _139
REMARK   62  A    between atoms: _138  and  _141
REMARK   63  A    between atoms: _144  and  _146
REMARK   64  A    between atoms: _146  and  _147
REMARK   65  A    between atoms: _146  and  _149
REMARK   66  A    between atoms: _149  and  _150
REMARK   67  A    between atoms: _153  and  _155
REMARK   68  A    between atoms: _155  and  _156
REMARK   69  A    between atoms: _155  and  _158
REMARK   70  A    between atoms: _158  and  _159
REMARK   71  A    between atoms: _162  and  _164
REMARK   72  A    between atoms: _164  and  _165
REMARK   73  A    between atoms: _164  and  _167
REMARK   74  A    between atoms: _167  and  _168
REMARK   75  A    between atoms: _168  and  _169
REMARK   76  A    between atoms: _171  and  _173
REMARK   77  A    between atoms: _173  and  _174
REMARK   78  A    between atoms: _173  and  _176
REMARK   79  A    between atoms: _176  and  _177
REMARK   80  A    between atoms: _177  and  _178
REMARK   81  A    between atoms: _178  and  _179
REMARK   82  A    between atoms: _179  and  _180
REMARK   83  A    between atoms: _184  and  _186
REMARK   84  A    between atoms: _186  and  _187
REMARK   85  A    between atoms: _186  and  _189
REMARK   86  A    between atoms: _189  and  _190
REMARK   87  A    between atoms: _193  and  _195
REMARK   88  A    between atoms: _195  and  _196
REMARK   89  A    between atoms: _195  and  _198
REMARK   90  A    between atoms: _198  and  _199
REMARK   91  A    between atoms: _204  and  _205
REMARK   92  A    between atoms: _207  and  _209
REMARK   93  A    between atoms: _209  and  _210
REMARK   94  A    between atoms: _209  and  _212
REMARK   95  A    between atoms: _212  and  _213
REMARK   96  A    between atoms: _213  and  _214
REMARK   97  A    between atoms: _217  and  _219
REMARK   98  A    between atoms: _219  and  _220
REMARK   99  A    between atoms: _219  and  _222
REMARK  100  A    between atoms: _222  and  _223
REMARK  101  A    between atoms: _228  and  _229
REMARK  102  A    between atoms: _231  and  _233
REMARK  103  A    between atoms: _233  and  _234
REMARK  104  A    between atoms: _233  and  _236
REMARK  105  A    between atoms: _236  and  _237
REMARK  106  A    between atoms: _240  and  _242
REMARK  107  A    between atoms: _242  and  _243
REMARK  108  A    between atoms: _242  and  _245
REMARK  109  A    between atoms: _248  and  _250
REMARK  110  A    between atoms: _250  and  _251
REMARK  111  A    between atoms: _253  and  _255
REMARK  112  A    between atoms: _255  and  _256
REMARK  113  A    between atoms: _255  and  _258
REMARK  114  A    between atoms: _258  and  _259
REMARK  115  A    between atoms: _259  and  _260
REMARK  116  A    between atoms: _263  and  _265
REMARK  117  A    between atoms: _265  and  _266
REMARK  118  A    between atoms: _265  and  _268
REMARK  119  A    between atoms: _271  and  _273
REMARK  120  A    between atoms: _273  and  _274
REMARK  121  A    between atoms: _273  and  _276
REMARK  122  A    between atoms: _276  and  _277
REMARK  123  A    between atoms: _282  and  _283
REMARK  124  A    between atoms: _285  and  _287
REMARK  125  A    between atoms: _287  and  _288
REMARK  126  A    between atoms: _287  and  _290
REMARK  127  A    between atoms: _290  and  _291
REMARK  128  A    between atoms: _294  and  _296
REMARK  129  A    between atoms: _296  and  _297
REMARK  130  A    between atoms: _299  and  _301
REMARK  131  A    between atoms: _301  and  _302
REMARK  132  A    between atoms: _304  and  _306
REMARK  133  A    between atoms: _306  and  _307
REMARK  134  A    between atoms: _306  and  _309
REMARK  135  A    between atoms: _309  and  _310
REMARK  136  A    between atoms: _310  and  _311
REMARK  137  A    between atoms: _314  and  _316
REMARK  138  A    between atoms: _316  and  _317
REMARK  139  A    between atoms: _316  and  _319
REMARK  140  A    between atoms: _319  and  _320
REMARK  141  A    between atoms: _323  and  _325
REMARK  142  A    between atoms: _325  and  _326
REMARK  143  A    between atoms: _325  and  _328
REMARK  144  A    between atoms: _328  and  _329
REMARK  145  A    between atoms: _333  and  _334
REMARK  146  A    between atoms: _339  and  _341
REMARK  147  A    between atoms: _341  and  _342
REMARK  148  A    between atoms: _341  and  _344
REMARK  149  A    between atoms: _344  and  _345
REMARK  150  A    between atoms: _345  and  _346
REMARK  151  A    between atoms: _349  and  _351
REMARK  152  A    between atoms: _351  and  _352
REMARK  153  A    between atoms: _351  and  _354
REMARK  154  A    between atoms: _354  and  _355
REMARK  155  A    between atoms: _360  and  _362
REMARK  156  A    between atoms: _362  and  _363
REMARK  157  A    between atoms: _362  and  _365
REMARK  158  A    between atoms: _365  and  _366
REMARK  159  A    between atoms: _369  and  _371
REMARK  160  A    between atoms: _371  and  _372
REMARK  161  A    between atoms: _371  and  _374
REMARK  162  A    between atoms: _374  and  _375
REMARK  163  A    between atoms: _378  and  _380
REMARK  164  A    between atoms: _380  and  _381
REMARK  165  A    between atoms: _380  and  _383
REMARK  166  A    between atoms: _383  and  _384
REMARK  167  A    between atoms: _387  and  _389
REMARK  168  A    between atoms: _389  and  _390
REMARK  169  A    between atoms: _389  and  _392
REMARK  170  A    between atoms: _392  and  _393
REMARK  171  A    between atoms: _393  and  _394
REMARK  172  A    between atoms: _397  and  _399
REMARK  173  A    between atoms: _399  and  _400
REMARK  174  A    between atoms: _399  and  _402
REMARK  175  A    between atoms: _402  and  _403
REMARK  176  A    between atoms: _403  and  _404
REMARK  177  A    between atoms: _404  and  _405
REMARK  178  A    between atoms: _414  and  _416
REMARK  179  A    between atoms: _416  and  _417
REMARK  180  A    between atoms: _416  and  _419
REMARK  181  A    between atoms: _419  and  _420
REMARK  182  A    between atoms: _423  and  _425
REMARK  183  A    between atoms: _425  and  _426
REMARK  184  A    between atoms: _425  and  _428
REMARK  185  A    between atoms: _428  and  _429
REMARK  186  A    between atoms: _432  and  _434
REMARK  187  A    between atoms: _434  and  _435
REMARK  188  A    between atoms: _434  and  _437
REMARK  189  A    between atoms: _437  and  _438
REMARK  190  A    between atoms: _441  and  _443
REMARK  191  A    between atoms: _443  and  _444
REMARK  192  A    between atoms: _443  and  _446
REMARK  193  A    between atoms: _446  and  _447
REMARK  194  A    between atoms: _453  and  _455
REMARK  195  A    between atoms: _455  and  _456
REMARK  196  A    between atoms: _458  and  _460
REMARK  197  A    between atoms: _460  and  _461
REMARK  198  A    between atoms: _460  and  _463
REMARK  199  A    between atoms: _463  and  _464
REMARK  200  A    between atoms: _467  and  _469
REMARK  201  A    between atoms: _469  and  _470
REMARK  202  A    between atoms: _469  and  _472
REMARK  203  A    between atoms: _472  and  _473
REMARK  204  A    between atoms: _479  and  _481
REMARK  205  A    between atoms: _481  and  _482
REMARK  206  A    between atoms: _481  and  _484
REMARK  207  A    between atoms: _484  and  _485
REMARK  208  A    between atoms: _485  and  _486
REMARK  209  A    between atoms: _486  and  _487
REMARK  210  A    between atoms: _487  and  _488
REMARK  211  A    between atoms: _492  and  _494
REMARK  212  A    between atoms: _494  and  _495
REMARK  213  A    between atoms: _494  and  _497
REMARK  214  A    between atoms: _497  and  _498
REMARK  215  A    between atoms: _498  and  _499
REMARK                            x       y       z     vdW  Elec       q    Type
REMARK                         _______ _______ _______ _____ _____    ______ ____
ROOT
ATOM      1  O   HOH     1      15.887  20.692  27.388  0.00  0.00    +0.000 OA
ENDROOT
TORSDOF 0
