REMARK  Name = ../refined-set-2016/3aid/3aid_pocket.pdb
REMARK  198 active torsions:
REMARK  status: ('A' for Active; 'I' for Inactive)
REMARK    1  A    between atoms: _1  and  _3
REMARK    2  A    between atoms: _3  and  _4
REMARK    3  A    between atoms: _3  and  _6
REMARK    4  A    between atoms: _6  and  _7
REMARK    5  A    between atoms: _7  and  _8
REMARK    6  A    between atoms: _8  and  _9
REMARK    7  A    between atoms: _18  and  _20
REMARK    8  A    between atoms: _20  and  _21
REMARK    9  A    between atoms: _20  and  _23
REMARK   10  A    between atoms: _23  and  _24
REMARK   11  A    between atoms: _27  and  _29
REMARK   12  A    between atoms: _29  and  _30
REMARK   13  A    between atoms: _29  and  _32
REMARK   14  A    between atoms: _32  and  _33
REMARK   15  A    between atoms: _36  and  _38
REMARK   16  A    between atoms: _38  and  _39
REMARK   17  A    between atoms: _38  and  _41
REMARK   18  A    between atoms: _41  and  _42
REMARK   19  A    between atoms: _45  and  _47
REMARK   20  A    between atoms: _47  and  _48
REMARK   21  A    between atoms: _47  and  _50
REMARK   22  A    between atoms: _50  and  _51
REMARK   23  A    between atoms: _54  and  _56
REMARK   24  A    between atoms: _56  and  _57
REMARK   25  A    between atoms: _59  and  _61
REMARK   26  A    between atoms: _61  and  _62
REMARK   27  A    between atoms: _65  and  _67
REMARK   28  A    between atoms: _67  and  _68
REMARK   29  A    between atoms: _67  and  _70
REMARK   30  A    between atoms: _70  and  _71
REMARK   31  A    between atoms: _74  and  _76
REMARK   32  A    between atoms: _76  and  _77
REMARK   33  A    between atoms: _76  and  _79
REMARK   34  A    between atoms: _79  and  _80
REMARK   35  A    between atoms: _83  and  _85
REMARK   36  A    between atoms: _85  and  _86
REMARK   37  A    between atoms: _85  and  _88
REMARK   38  A    between atoms: _88  and  _89
REMARK   39  A    between atoms: _92  and  _94
REMARK   40  A    between atoms: _94  and  _95
REMARK   41  A    between atoms: _94  and  _97
REMARK   42  A    between atoms: _100  and  _102
REMARK   43  A    between atoms: _102  and  _103
REMARK   44  A    between atoms: _102  and  _105
REMARK   45  A    between atoms: _105  and  _106
REMARK   46  A    between atoms: _106  and  _107
REMARK   47  A    between atoms: _107  and  _108
REMARK   48  A    between atoms: _108  and  _109
REMARK   49  A    between atoms: _113  and  _115
REMARK   50  A    between atoms: _115  and  _116
REMARK   51  A    between atoms: _115  and  _118
REMARK   52  A    between atoms: _118  and  _119
REMARK   53  A    between atoms: _122  and  _124
REMARK   54  A    between atoms: _124  and  _125
REMARK   55  A    between atoms: _127  and  _129
REMARK   56  A    between atoms: _129  and  _130
REMARK   57  A    between atoms: _134  and  _135
REMARK   58  A    between atoms: _134  and  _137
REMARK   59  A    between atoms: _137  and  _138
REMARK   60  A    between atoms: _141  and  _143
REMARK   61  A    between atoms: _143  and  _144
REMARK   62  A    between atoms: _146  and  _148
REMARK   63  A    between atoms: _148  and  _149
REMARK   64  A    between atoms: _151  and  _153
REMARK   65  A    between atoms: _153  and  _154
REMARK   66  A    between atoms: _153  and  _156
REMARK   67  A    between atoms: _156  and  _157
REMARK   68  A    between atoms: _160  and  _162
REMARK   69  A    between atoms: _162  and  _163
REMARK   70  A    between atoms: _162  and  _165
REMARK   71  A    between atoms: _165  and  _166
REMARK   72  A    between atoms: _169  and  _171
REMARK   73  A    between atoms: _171  and  _172
REMARK   74  A    between atoms: _171  and  _174
REMARK   75  A    between atoms: _174  and  _175
REMARK   76  A    between atoms: _179  and  _180
REMARK   77  A    between atoms: _185  and  _187
REMARK   78  A    between atoms: _187  and  _188
REMARK   79  A    between atoms: _187  and  _190
REMARK   80  A    between atoms: _193  and  _195
REMARK   81  A    between atoms: _195  and  _196
REMARK   82  A    between atoms: _195  and  _198
REMARK   83  A    between atoms: _198  and  _199
REMARK   84  A    between atoms: _204  and  _206
REMARK   85  A    between atoms: _206  and  _207
REMARK   86  A    between atoms: _206  and  _209
REMARK   87  A    between atoms: _209  and  _210
REMARK   88  A    between atoms: _213  and  _215
REMARK   89  A    between atoms: _215  and  _216
REMARK   90  A    between atoms: _218  and  _220
REMARK   91  A    between atoms: _220  and  _221
REMARK   92  A    between atoms: _220  and  _223
REMARK   93  A    between atoms: _223  and  _224
REMARK   94  A    between atoms: _224  and  _225
REMARK   95  A    between atoms: _225  and  _226
REMARK   96  A    between atoms: _235  and  _237
REMARK   97  A    between atoms: _237  and  _238
REMARK   98  A    between atoms: _237  and  _240
REMARK   99  A    between atoms: _240  and  _241
REMARK  100  A    between atoms: _246  and  _248
REMARK  101  A    between atoms: _248  and  _249
REMARK  102  A    between atoms: _248  and  _251
REMARK  103  A    between atoms: _251  and  _252
REMARK  104  A    between atoms: _252  and  _253
REMARK  105  A    between atoms: _253  and  _254
REMARK  106  A    between atoms: _263  and  _265
REMARK  107  A    between atoms: _265  and  _266
REMARK  108  A    between atoms: _265  and  _268
REMARK  109  A    between atoms: _268  and  _269
REMARK  110  A    between atoms: _272  and  _274
REMARK  111  A    between atoms: _274  and  _275
REMARK  112  A    between atoms: _274  and  _277
REMARK  113  A    between atoms: _277  and  _278
REMARK  114  A    between atoms: _281  and  _283
REMARK  115  A    between atoms: _283  and  _284
REMARK  116  A    between atoms: _283  and  _286
REMARK  117  A    between atoms: _286  and  _287
REMARK  118  A    between atoms: _290  and  _292
REMARK  119  A    between atoms: _292  and  _293
REMARK  120  A    between atoms: _292  and  _295
REMARK  121  A    between atoms: _295  and  _296
REMARK  122  A    between atoms: _299  and  _301
REMARK  123  A    between atoms: _301  and  _302
REMARK  124  A    between atoms: _304  and  _306
REMARK  125  A    between atoms: _306  and  _307
REMARK  126  A    between atoms: _310  and  _312
REMARK  127  A    between atoms: _312  and  _313
REMARK  128  A    between atoms: _312  and  _315
REMARK  129  A    between atoms: _315  and  _316
REMARK  130  A    between atoms: _319  and  _321
REMARK  131  A    between atoms: _321  and  _322
REMARK  132  A    between atoms: _321  and  _324
REMARK  133  A    between atoms: _324  and  _325
REMARK  134  A    between atoms: _328  and  _330
REMARK  135  A    between atoms: _330  and  _331
REMARK  136  A    between atoms: _330  and  _333
REMARK  137  A    between atoms: _333  and  _334
REMARK  138  A    between atoms: _337  and  _339
REMARK  139  A    between atoms: _339  and  _340
REMARK  140  A    between atoms: _339  and  _342
REMARK  141  A    between atoms: _345  and  _347
REMARK  142  A    between atoms: _347  and  _348
REMARK  143  A    between atoms: _347  and  _350
REMARK  144  A    between atoms: _350  and  _351
REMARK  145  A    between atoms: _351  and  _352
REMARK  146  A    between atoms: _354  and  _356
REMARK  147  A    between atoms: _356  and  _357
REMARK  148  A    between atoms: _356  and  _359
REMARK  149  A    between atoms: _359  and  _360
REMARK  150  A    between atoms: _363  and  _365
REMARK  151  A    between atoms: _365  and  _366
REMARK  152  A    between atoms: _368  and  _370
REMARK  153  A    between atoms: _370  and  _371
REMARK  154  A    between atoms: _373  and  _375
REMARK  155  A    between atoms: _375  and  _376
REMARK  156  A    between atoms: _375  and  _378
REMARK  157  A    between atoms: _378  and  _379
REMARK  158  A    between atoms: _382  and  _384
REMARK  159  A    between atoms: _384  and  _385
REMARK  160  A    between atoms: _387  and  _389
REMARK  161  A    between atoms: _389  and  _390
REMARK  162  A    between atoms: _392  and  _394
REMARK  163  A    between atoms: _394  and  _395
REMARK  164  A    between atoms: _394  and  _397
REMARK  165  A    between atoms: _397  and  _398
REMARK  166  A    between atoms: _404  and  _406
REMARK  167  A    between atoms: _406  and  _407
REMARK  168  A    between atoms: _406  and  _409
REMARK  169  A    between atoms: _409  and  _410
REMARK  170  A    between atoms: _413  and  _415
REMARK  171  A    between atoms: _415  and  _416
REMARK  172  A    between atoms: _415  and  _418
REMARK  173  A    between atoms: _421  and  _423
REMARK  174  A    between atoms: _423  and  _424
REMARK  175  A    between atoms: _423  and  _426
REMARK  176  A    between atoms: _426  and  _427
REMARK  177  A    between atoms: _430  and  _432
REMARK  178  A    between atoms: _432  and  _433
REMARK  179  A    between atoms: _432  and  _435
REMARK  180  A    between atoms: _435  and  _436
REMARK  181  A    between atoms: _440  and  _441
REMARK  182  A    between atoms: _446  and  _448
REMARK  183  A    between atoms: _448  and  _449
REMARK  184  A    between atoms: _448  and  _451
REMARK  185  A    between atoms: _454  and  _456
REMARK  186  A    between atoms: _456  and  _457
REMARK  187  A    between atoms: _456  and  _459
REMARK  188  A    between atoms: _459  and  _460
REMARK  189  A    between atoms: _465  and  _467
REMARK  190  A    between atoms: _467  and  _468
REMARK  191  A    between atoms: _467  and  _470
REMARK  192  A    between atoms: _470  and  _471
REMARK  193  A    between atoms: _474  and  _476
REMARK  194  A    between atoms: _476  and  _477
REMARK  195  A    between atoms: _476  and  _479
REMARK  196  A    between atoms: _479  and  _480
REMARK  197  A    between atoms: _480  and  _481
REMARK  198  A    between atoms: _481  and  _482
REMARK                            x       y       z     vdW  Elec       q    Type
REMARK                         _______ _______ _______ _____ _____    ______ ____
ROOT
ATOM      1  NE  ARG A   1       4.151  -7.669  24.790  0.00  0.00    -0.265 N 
ATOM      2  HE  ARG A   1       4.660  -8.176  25.542  0.00  0.00    +0.259 HD
ATOM      3  CZ  ARG A   1       4.343  -8.083  23.521  0.00  0.00    +0.342 C 
ATOM      4  NH2 ARG A   1       5.334  -8.947  23.322  0.00  0.00    -0.292 N 
ATOM      5 HH21 ARG A   1       5.913  -9.268  24.124  0.00  0.00    +0.255 HD
ATOM      6 HH22 ARG A   1       5.530  -9.302  22.364  0.00  0.00    +0.255 HD
ATOM      7  NH1 ARG A   1       3.598  -7.690  22.490  0.00  0.00    -0.292 N 
ATOM      8 HH11 ARG A   1       2.813  -7.024  22.639  0.00  0.00    +0.255 HD
ATOM      9 HH12 ARG A   1       3.801  -8.049  21.535  0.00  0.00    +0.255 HD
ENDROOT
BRANCH   1  10
ATOM     10  CD  ARG A   1       3.297  -6.581  25.184  0.00  0.00    +0.174 C 
BRANCH  10  11
ATOM     11  CG  ARG A   1       4.144  -5.748  26.107  0.00  0.00    +0.045 C 
BRANCH  11  12
ATOM     12  CB  ARG A   1       3.384  -4.517  26.488  0.00  0.00    +0.029 C 
BRANCH  12  13
ATOM     13  CA  ARG A   1       4.091  -3.587  27.449  0.00  0.00    +0.133 C 
BRANCH  13  14
ATOM     14  N   ARG A   1       4.801  -4.305  28.535  0.00  0.00    -0.239 NA
ATOM     15  H   ARG A   1       4.824  -5.344  28.586  0.00  0.00    +0.142 HD
ENDBRANCH  13  14
BRANCH  13  16
ATOM     16  C   ARG A   1       3.003  -2.612  27.887  0.00  0.00    +0.224 C 
ATOM     17  O   ARG A   1       2.184  -2.938  28.746  0.00  0.00    -0.287 OA
ENDBRANCH  13  16
ENDBRANCH  12  13
ENDBRANCH  11  12
ENDBRANCH  10  11
ENDBRANCH   1  10
TORSDOF 6
REMARK  Name = ../refined-set-2016/3aid/3aid_pocket.pdb
REMARK  198 active torsions:
REMARK  status: ('A' for Active; 'I' for Inactive)
REMARK    1  A    between atoms: _1  and  _3
REMARK    2  A    between atoms: _3  and  _4
REMARK    3  A    between atoms: _3  and  _6
REMARK    4  A    between atoms: _6  and  _7
REMARK    5  A    between atoms: _7  and  _8
REMARK    6  A    between atoms: _8  and  _9
REMARK    7  A    between atoms: _18  and  _20
REMARK    8  A    between atoms: _20  and  _21
REMARK    9  A    between atoms: _20  and  _23
REMARK   10  A    between atoms: _23  and  _24
REMARK   11  A    between atoms: _27  and  _29
REMARK   12  A    between atoms: _29  and  _30
REMARK   13  A    between atoms: _29  and  _32
REMARK   14  A    between atoms: _32  and  _33
REMARK   15  A    between atoms: _36  and  _38
REMARK   16  A    between atoms: _38  and  _39
REMARK   17  A    between atoms: _38  and  _41
REMARK   18  A    between atoms: _41  and  _42
REMARK   19  A    between atoms: _45  and  _47
REMARK   20  A    between atoms: _47  and  _48
REMARK   21  A    between atoms: _47  and  _50
REMARK   22  A    between atoms: _50  and  _51
REMARK   23  A    between atoms: _54  and  _56
REMARK   24  A    between atoms: _56  and  _57
REMARK   25  A    between atoms: _59  and  _61
REMARK   26  A    between atoms: _61  and  _62
REMARK   27  A    between atoms: _65  and  _67
REMARK   28  A    between atoms: _67  and  _68
REMARK   29  A    between atoms: _67  and  _70
REMARK   30  A    between atoms: _70  and  _71
REMARK   31  A    between atoms: _74  and  _76
REMARK   32  A    between atoms: _76  and  _77
REMARK   33  A    between atoms: _76  and  _79
REMARK   34  A    between atoms: _79  and  _80
REMARK   35  A    between atoms: _83  and  _85
REMARK   36  A    between atoms: _85  and  _86
REMARK   37  A    between atoms: _85  and  _88
REMARK   38  A    between atoms: _88  and  _89
REMARK   39  A    between atoms: _92  and  _94
REMARK   40  A    between atoms: _94  and  _95
REMARK   41  A    between atoms: _94  and  _97
REMARK   42  A    between atoms: _100  and  _102
REMARK   43  A    between atoms: _102  and  _103
REMARK   44  A    between atoms: _102  and  _105
REMARK   45  A    between atoms: _105  and  _106
REMARK   46  A    between atoms: _106  and  _107
REMARK   47  A    between atoms: _107  and  _108
REMARK   48  A    between atoms: _108  and  _109
REMARK   49  A    between atoms: _113  and  _115
REMARK   50  A    between atoms: _115  and  _116
REMARK   51  A    between atoms: _115  and  _118
REMARK   52  A    between atoms: _118  and  _119
REMARK   53  A    between atoms: _122  and  _124
REMARK   54  A    between atoms: _124  and  _125
REMARK   55  A    between atoms: _127  and  _129
REMARK   56  A    between atoms: _129  and  _130
REMARK   57  A    between atoms: _134  and  _135
REMARK   58  A    between atoms: _134  and  _137
REMARK   59  A    between atoms: _137  and  _138
REMARK   60  A    between atoms: _141  and  _143
REMARK   61  A    between atoms: _143  and  _144
REMARK   62  A    between atoms: _146  and  _148
REMARK   63  A    between atoms: _148  and  _149
REMARK   64  A    between atoms: _151  and  _153
REMARK   65  A    between atoms: _153  and  _154
REMARK   66  A    between atoms: _153  and  _156
REMARK   67  A    between atoms: _156  and  _157
REMARK   68  A    between atoms: _160  and  _162
REMARK   69  A    between atoms: _162  and  _163
REMARK   70  A    between atoms: _162  and  _165
REMARK   71  A    between atoms: _165  and  _166
REMARK   72  A    between atoms: _169  and  _171
REMARK   73  A    between atoms: _171  and  _172
REMARK   74  A    between atoms: _171  and  _174
REMARK   75  A    between atoms: _174  and  _175
REMARK   76  A    between atoms: _179  and  _180
REMARK   77  A    between atoms: _185  and  _187
REMARK   78  A    between atoms: _187  and  _188
REMARK   79  A    between atoms: _187  and  _190
REMARK   80  A    between atoms: _193  and  _195
REMARK   81  A    between atoms: _195  and  _196
REMARK   82  A    between atoms: _195  and  _198
REMARK   83  A    between atoms: _198  and  _199
REMARK   84  A    between atoms: _204  and  _206
REMARK   85  A    between atoms: _206  and  _207
REMARK   86  A    between atoms: _206  and  _209
REMARK   87  A    between atoms: _209  and  _210
REMARK   88  A    between atoms: _213  and  _215
REMARK   89  A    between atoms: _215  and  _216
REMARK   90  A    between atoms: _218  and  _220
REMARK   91  A    between atoms: _220  and  _221
REMARK   92  A    between atoms: _220  and  _223
REMARK   93  A    between atoms: _223  and  _224
REMARK   94  A    between atoms: _224  and  _225
REMARK   95  A    between atoms: _225  and  _226
REMARK   96  A    between atoms: _235  and  _237
REMARK   97  A    between atoms: _237  and  _238
REMARK   98  A    between atoms: _237  and  _240
REMARK   99  A    between atoms: _240  and  _241
REMARK  100  A    between atoms: _246  and  _248
REMARK  101  A    between atoms: _248  and  _249
REMARK  102  A    between atoms: _248  and  _251
REMARK  103  A    between atoms: _251  and  _252
REMARK  104  A    between atoms: _252  and  _253
REMARK  105  A    between atoms: _253  and  _254
REMARK  106  A    between atoms: _263  and  _265
REMARK  107  A    between atoms: _265  and  _266
REMARK  108  A    between atoms: _265  and  _268
REMARK  109  A    between atoms: _268  and  _269
REMARK  110  A    between atoms: _272  and  _274
REMARK  111  A    between atoms: _274  and  _275
REMARK  112  A    between atoms: _274  and  _277
REMARK  113  A    between atoms: _277  and  _278
REMARK  114  A    between atoms: _281  and  _283
REMARK  115  A    between atoms: _283  and  _284
REMARK  116  A    between atoms: _283  and  _286
REMARK  117  A    between atoms: _286  and  _287
REMARK  118  A    between atoms: _290  and  _292
REMARK  119  A    between atoms: _292  and  _293
REMARK  120  A    between atoms: _292  and  _295
REMARK  121  A    between atoms: _295  and  _296
REMARK  122  A    between atoms: _299  and  _301
REMARK  123  A    between atoms: _301  and  _302
REMARK  124  A    between atoms: _304  and  _306
REMARK  125  A    between atoms: _306  and  _307
REMARK  126  A    between atoms: _310  and  _312
REMARK  127  A    between atoms: _312  and  _313
REMARK  128  A    between atoms: _312  and  _315
REMARK  129  A    between atoms: _315  and  _316
REMARK  130  A    between atoms: _319  and  _321
REMARK  131  A    between atoms: _321  and  _322
REMARK  132  A    between atoms: _321  and  _324
REMARK  133  A    between atoms: _324  and  _325
REMARK  134  A    between atoms: _328  and  _330
REMARK  135  A    between atoms: _330  and  _331
REMARK  136  A    between atoms: _330  and  _333
REMARK  137  A    between atoms: _333  and  _334
REMARK  138  A    between atoms: _337  and  _339
REMARK  139  A    between atoms: _339  and  _340
REMARK  140  A    between atoms: _339  and  _342
REMARK  141  A    between atoms: _345  and  _347
REMARK  142  A    between atoms: _347  and  _348
REMARK  143  A    between atoms: _347  and  _350
REMARK  144  A    between atoms: _350  and  _351
REMARK  145  A    between atoms: _351  and  _352
REMARK  146  A    between atoms: _354  and  _356
REMARK  147  A    between atoms: _356  and  _357
REMARK  148  A    between atoms: _356  and  _359
REMARK  149  A    between atoms: _359  and  _360
REMARK  150  A    between atoms: _363  and  _365
REMARK  151  A    between atoms: _365  and  _366
REMARK  152  A    between atoms: _368  and  _370
REMARK  153  A    between atoms: _370  and  _371
REMARK  154  A    between atoms: _373  and  _375
REMARK  155  A    between atoms: _375  and  _376
REMARK  156  A    between atoms: _375  and  _378
REMARK  157  A    between atoms: _378  and  _379
REMARK  158  A    between atoms: _382  and  _384
REMARK  159  A    between atoms: _384  and  _385
REMARK  160  A    between atoms: _387  and  _389
REMARK  161  A    between atoms: _389  and  _390
REMARK  162  A    between atoms: _392  and  _394
REMARK  163  A    between atoms: _394  and  _395
REMARK  164  A    between atoms: _394  and  _397
REMARK  165  A    between atoms: _397  and  _398
REMARK  166  A    between atoms: _404  and  _406
REMARK  167  A    between atoms: _406  and  _407
REMARK  168  A    between atoms: _406  and  _409
REMARK  169  A    between atoms: _409  and  _410
REMARK  170  A    between atoms: _413  and  _415
REMARK  171  A    between atoms: _415  and  _416
REMARK  172  A    between atoms: _415  and  _418
REMARK  173  A    between atoms: _421  and  _423
REMARK  174  A    between atoms: _423  and  _424
REMARK  175  A    between atoms: _423  and  _426
REMARK  176  A    between atoms: _426  and  _427
REMARK  177  A    between atoms: _430  and  _432
REMARK  178  A    between atoms: _432  and  _433
REMARK  179  A    between atoms: _432  and  _435
REMARK  180  A    between atoms: _435  and  _436
REMARK  181  A    between atoms: _440  and  _441
REMARK  182  A    between atoms: _446  and  _448
REMARK  183  A    between atoms: _448  and  _449
REMARK  184  A    between atoms: _448  and  _451
REMARK  185  A    between atoms: _454  and  _456
REMARK  186  A    between atoms: _456  and  _457
REMARK  187  A    between atoms: _456  and  _459
REMARK  188  A    between atoms: _459  and  _460
REMARK  189  A    between atoms: _465  and  _467
REMARK  190  A    between atoms: _467  and  _468
REMARK  191  A    between atoms: _467  and  _470
REMARK  192  A    between atoms: _470  and  _471
REMARK  193  A    between atoms: _474  and  _476
REMARK  194  A    between atoms: _476  and  _477
REMARK  195  A    between atoms: _476  and  _479
REMARK  196  A    between atoms: _479  and  _480
REMARK  197  A    between atoms: _480  and  _481
REMARK  198  A    between atoms: _481  and  _482
REMARK                            x       y       z     vdW  Elec       q    Type
REMARK                         _______ _______ _______ _____ _____    ______ ____
ROOT
ATOM      1  C   GLY A   5       4.807   4.080  15.556  0.00  0.00    +0.243 C 
ATOM      2  N   ALA A   6       3.519   3.982  15.911  0.00  0.00    -0.297 N 
ATOM      3  H   ALA A   6       3.269   3.949  16.920  0.00  0.00    +0.150 HD
ATOM      4  O   GLY A   5       5.169   3.927  14.399  0.00  0.00    -0.273 OA
ENDROOT
BRANCH   2   5
ATOM      5  CA  ALA A   6       2.455   3.921  14.904  0.00  0.00    +0.149 C 
ATOM      6  CB  ALA A   6       1.433   2.831  15.275  0.00  0.00    +0.031 C 
BRANCH   5   7
ATOM      7  C   ALA A   6       1.731   5.256  14.687  0.00  0.00    +0.241 C 
ATOM      8  O   ALA A   6       1.156   5.870  15.572  0.00  0.00    -0.273 OA
ATOM      9  N   ASP A   7       1.735   5.695  13.417  0.00  0.00    -0.297 N 
ATOM     10  H   ASP A   7       2.273   5.191  12.684  0.00  0.00    +0.150 HD
BRANCH   9  11
ATOM     11  CA  ASP A   7       0.961   6.906  13.082  0.00  0.00    +0.160 C 
BRANCH  11  12
ATOM     12  C   ASP A   7      -0.564   6.870  13.321  0.00  0.00    +0.241 C 
ATOM     13  O   ASP A   7      -1.237   7.831  13.680  0.00  0.00    -0.273 OA
ATOM     14  N   ASP A   8      -1.060   5.654  13.068  0.00  0.00    -0.297 N 
ATOM     15  H   ASP A   8      -0.378   4.905  12.832  0.00  0.00    +0.150 HD
BRANCH  14  16
ATOM     16  CA  ASP A   8      -2.488   5.277  13.093  0.00  0.00    +0.160 C 
BRANCH  16  17
ATOM     17  C   ASP A   8      -2.819   4.094  14.037  0.00  0.00    +0.241 C 
ATOM     18  O   ASP A   8      -1.961   3.353  14.529  0.00  0.00    -0.273 OA
ATOM     19  N   THR A   9      -4.147   3.987  14.228  0.00  0.00    -0.295 N 
ATOM     20  H   THR A   9      -4.745   4.669  13.720  0.00  0.00    +0.150 HD
BRANCH  19  21
ATOM     21  CA  THR A   9      -4.846   3.005  15.081  0.00  0.00    +0.176 C 
BRANCH  21  22
ATOM     22  C   THR A   9      -5.458   1.897  14.250  0.00  0.00    +0.243 C 
ATOM     23  N   VAL A  10      -5.041   0.651  14.549  0.00  0.00    -0.298 N 
ATOM     24  H   VAL A  10      -4.411   0.552  15.370  0.00  0.00    +0.150 HD
ATOM     25  O   THR A   9      -6.255   2.173  13.366  0.00  0.00    -0.273 OA
BRANCH  23  26
ATOM     26  CA  VAL A  10      -5.394  -0.599  13.818  0.00  0.00    +0.137 C 
BRANCH  26  27
ATOM     27  CB  VAL A  10      -4.226  -1.172  12.961  0.00  0.00    +0.026 C 
ATOM     28  CG2 VAL A  10      -4.659  -2.391  12.146  0.00  0.00    +0.002 C 
ATOM     29  CG1 VAL A  10      -3.615  -0.156  11.996  0.00  0.00    +0.002 C 
ENDBRANCH  26  27
BRANCH  26  30
ATOM     30  C   VAL A  10      -5.834  -1.722  14.783  0.00  0.00    +0.227 C 
ATOM     31  O   VAL A  10      -5.219  -2.060  15.809  0.00  0.00    -0.286 OA
ENDBRANCH  26  30
ENDBRANCH  23  26
ENDBRANCH  21  22
BRANCH  21  32
ATOM     32  CB  THR A   9      -5.964   3.748  15.851  0.00  0.00    +0.137 C 
ATOM     33  CG2 THR A   9      -6.900   2.920  16.750  0.00  0.00    +0.034 C 
BRANCH  32  34
ATOM     34  OG1 THR A   9      -5.386   4.814  16.619  0.00  0.00    -0.382 OA
ATOM     35  HG1 THR A   9      -4.926   5.446  16.011  0.00  0.00    +0.210 HD
ENDBRANCH  32  34
ENDBRANCH  21  32
ENDBRANCH  19  21
ENDBRANCH  16  17
BRANCH  16  36
ATOM     36  CB  ASP A   8      -3.013   4.874  11.694  0.00  0.00    +0.143 C 
BRANCH  36  37
ATOM     37  CG  ASP A   8      -2.604   5.771  10.511  0.00  0.00    +0.367 C 
ATOM     38  OD2 ASP A   8      -2.969   6.951  10.471  0.00  0.00    -0.246 OA
ATOM     39  OD1 ASP A   8      -1.929   5.277   9.606  0.00  0.00    -0.246 OA
ENDBRANCH  36  37
ENDBRANCH  16  36
ENDBRANCH  14  16
ENDBRANCH  11  12
BRANCH  11  40
ATOM     40  CB  ASP A   7       1.214   7.334  11.621  0.00  0.00    +0.143 C 
BRANCH  40  41
ATOM     41  CG  ASP A   7       2.652   7.723  11.241  0.00  0.00    +0.367 C 
ATOM     42  OD2 ASP A   7       3.473   8.024  12.119  0.00  0.00    -0.246 OA
ATOM     43  OD1 ASP A   7       2.937   7.729  10.035  0.00  0.00    -0.246 OA
ENDBRANCH  40  41
ENDBRANCH  11  40
ENDBRANCH   9  11
ENDBRANCH   5   7
ENDBRANCH   2   5
BRANCH   1  44
ATOM     44  CA  GLY A   5       5.764   4.489  16.717  0.00  0.00    +0.176 C 
BRANCH  44  46
ATOM     45  C   THR A   4       4.681   5.739  18.455  0.00  0.00    +0.243 C 
ATOM     46  N   GLY A   5       5.240   4.582  18.101  0.00  0.00    -0.295 N 
ATOM     47  H   GLY A   5       5.305   3.783  18.764  0.00  0.00    +0.150 HD
ATOM     48  O   THR A   4       4.739   6.713  17.725  0.00  0.00    -0.273 OA
BRANCH  45  49
ATOM     49  CA  THR A   4       3.974   5.754  19.819  0.00  0.00    +0.176 C 
BRANCH  49  51
ATOM     50  C   ASP A   3       2.638   3.731  19.715  0.00  0.00    +0.241 C 
ATOM     51  N   THR A   4       3.487   4.495  20.404  0.00  0.00    -0.295 N 
ATOM     52  H   THR A   4       3.803   4.202  21.350  0.00  0.00    +0.150 HD
ATOM     53  O   ASP A   3       2.305   3.987  18.574  0.00  0.00    -0.273 OA
BRANCH  50  54
ATOM     54  CA  ASP A   3       2.150   2.485  20.441  0.00  0.00    +0.160 C 
BRANCH  54  57
ATOM     55  C   LEU A   2       1.124   2.367  22.612  0.00  0.00    +0.241 C 
ATOM     56  O   LEU A   2       2.176   2.052  23.152  0.00  0.00    -0.273 OA
ATOM     57  N   ASP A   3       1.038   2.790  21.357  0.00  0.00    -0.297 N 
ATOM     58  H   ASP A   3       0.207   3.323  21.029  0.00  0.00    +0.150 HD
BRANCH  55  59
ATOM     59  CA  LEU A   2      -0.196   2.267  23.300  0.00  0.00    +0.149 C 
BRANCH  59  61
ATOM     60  C   LEU A   1      -1.118   0.146  22.698  0.00  0.00    +0.238 C 
ATOM     61  N   LEU A   2      -0.537   0.896  23.624  0.00  0.00    -0.297 N 
ATOM     62  H   LEU A   2      -0.330   0.508  24.566  0.00  0.00    +0.150 HD
ATOM     63  O   LEU A   1      -1.441   0.552  21.586  0.00  0.00    -0.274 OA
BRANCH  60  64
ATOM     64  CA  LEU A   1      -1.397  -1.289  23.114  0.00  0.00    +0.145 C 
BRANCH  64  65
ATOM     65  N   LEU A   1      -2.787  -1.711  22.805  0.00  0.00    -0.238 NA
ATOM     66  H   LEU A   1      -3.060  -1.840  21.810  0.00  0.00    +0.142 HD
ENDBRANCH  64  65
BRANCH  64  67
ATOM     67  CB  LEU A   1      -0.438  -2.253  22.366  0.00  0.00    +0.026 C 
BRANCH  67  68
ATOM     68  CG  LEU A   1       1.083  -2.186  22.476  0.00  0.00    +0.002 C 
ATOM     69  CD2 LEU A   1       1.571  -2.706  23.809  0.00  0.00    +0.000 C 
ATOM     70  CD1 LEU A   1       1.744  -3.023  21.405  0.00  0.00    +0.000 C 
ENDBRANCH  67  68
ENDBRANCH  64  67
ENDBRANCH  60  64
ENDBRANCH  59  61
BRANCH  59  71
ATOM     71  CB  LEU A   2      -0.090   3.152  24.536  0.00  0.00    +0.029 C 
BRANCH  71  72
ATOM     72  CG  LEU A   2      -1.255   3.055  25.535  0.00  0.00    +0.002 C 
ATOM     73  CD2 LEU A   2      -0.973   3.913  26.770  0.00  0.00    +0.000 C 
ATOM     74  CD1 LEU A   2      -2.622   3.353  24.899  0.00  0.00    +0.000 C 
ENDBRANCH  71  72
ENDBRANCH  59  71
ENDBRANCH  55  59
ENDBRANCH  54  57
BRANCH  54  75
ATOM     75  CB  ASP A   3       1.693   1.332  19.491  0.00  0.00    +0.143 C 
BRANCH  75  76
ATOM     76  CG  ASP A   3       2.634   0.934  18.354  0.00  0.00    +0.367 C 
ATOM     77  OD2 ASP A   3       3.520   1.687  17.966  0.00  0.00    -0.246 OA
ATOM     78  OD1 ASP A   3       2.465  -0.161  17.838  0.00  0.00    -0.246 OA
ENDBRANCH  75  76
ENDBRANCH  54  75
ENDBRANCH  50  54
ENDBRANCH  49  51
BRANCH  49  79
ATOM     79  CB  THR A   4       4.908   6.402  20.819  0.00  0.00    +0.137 C 
ATOM     80  CG2 THR A   4       4.172   6.524  22.144  0.00  0.00    +0.034 C 
BRANCH  79  81
ATOM     81  OG1 THR A   4       6.075   5.582  21.010  0.00  0.00    -0.382 OA
ATOM     82  HG1 THR A   4       6.547   5.475  20.146  0.00  0.00    +0.210 HD
ENDBRANCH  79  81
ENDBRANCH  49  79
ENDBRANCH  45  49
ENDBRANCH  44  46
ENDBRANCH   1  44
TORSDOF 35
REMARK  Name = ../refined-set-2016/3aid/3aid_pocket.pdb
REMARK  198 active torsions:
REMARK  status: ('A' for Active; 'I' for Inactive)
REMARK    1  A    between atoms: _1  and  _3
REMARK    2  A    between atoms: _3  and  _4
REMARK    3  A    between atoms: _3  and  _6
REMARK    4  A    between atoms: _6  and  _7
REMARK    5  A    between atoms: _7  and  _8
REMARK    6  A    between atoms: _8  and  _9
REMARK    7  A    between atoms: _18  and  _20
REMARK    8  A    between atoms: _20  and  _21
REMARK    9  A    between atoms: _20  and  _23
REMARK   10  A    between atoms: _23  and  _24
REMARK   11  A    between atoms: _27  and  _29
REMARK   12  A    between atoms: _29  and  _30
REMARK   13  A    between atoms: _29  and  _32
REMARK   14  A    between atoms: _32  and  _33
REMARK   15  A    between atoms: _36  and  _38
REMARK   16  A    between atoms: _38  and  _39
REMARK   17  A    between atoms: _38  and  _41
REMARK   18  A    between atoms: _41  and  _42
REMARK   19  A    between atoms: _45  and  _47
REMARK   20  A    between atoms: _47  and  _48
REMARK   21  A    between atoms: _47  and  _50
REMARK   22  A    between atoms: _50  and  _51
REMARK   23  A    between atoms: _54  and  _56
REMARK   24  A    between atoms: _56  and  _57
REMARK   25  A    between atoms: _59  and  _61
REMARK   26  A    between atoms: _61  and  _62
REMARK   27  A    between atoms: _65  and  _67
REMARK   28  A    between atoms: _67  and  _68
REMARK   29  A    between atoms: _67  and  _70
REMARK   30  A    between atoms: _70  and  _71
REMARK   31  A    between atoms: _74  and  _76
REMARK   32  A    between atoms: _76  and  _77
REMARK   33  A    between atoms: _76  and  _79
REMARK   34  A    between atoms: _79  and  _80
REMARK   35  A    between atoms: _83  and  _85
REMARK   36  A    between atoms: _85  and  _86
REMARK   37  A    between atoms: _85  and  _88
REMARK   38  A    between atoms: _88  and  _89
REMARK   39  A    between atoms: _92  and  _94
REMARK   40  A    between atoms: _94  and  _95
REMARK   41  A    between atoms: _94  and  _97
REMARK   42  A    between atoms: _100  and  _102
REMARK   43  A    between atoms: _102  and  _103
REMARK   44  A    between atoms: _102  and  _105
REMARK   45  A    between atoms: _105  and  _106
REMARK   46  A    between atoms: _106  and  _107
REMARK   47  A    between atoms: _107  and  _108
REMARK   48  A    between atoms: _108  and  _109
REMARK   49  A    between atoms: _113  and  _115
REMARK   50  A    between atoms: _115  and  _116
REMARK   51  A    between atoms: _115  and  _118
REMARK   52  A    between atoms: _118  and  _119
REMARK   53  A    between atoms: _122  and  _124
REMARK   54  A    between atoms: _124  and  _125
REMARK   55  A    between atoms: _127  and  _129
REMARK   56  A    between atoms: _129  and  _130
REMARK   57  A    between atoms: _134  and  _135
REMARK   58  A    between atoms: _134  and  _137
REMARK   59  A    between atoms: _137  and  _138
REMARK   60  A    between atoms: _141  and  _143
REMARK   61  A    between atoms: _143  and  _144
REMARK   62  A    between atoms: _146  and  _148
REMARK   63  A    between atoms: _148  and  _149
REMARK   64  A    between atoms: _151  and  _153
REMARK   65  A    between atoms: _153  and  _154
REMARK   66  A    between atoms: _153  and  _156
REMARK   67  A    between atoms: _156  and  _157
REMARK   68  A    between atoms: _160  and  _162
REMARK   69  A    between atoms: _162  and  _163
REMARK   70  A    between atoms: _162  and  _165
REMARK   71  A    between atoms: _165  and  _166
REMARK   72  A    between atoms: _169  and  _171
REMARK   73  A    between atoms: _171  and  _172
REMARK   74  A    between atoms: _171  and  _174
REMARK   75  A    between atoms: _174  and  _175
REMARK   76  A    between atoms: _179  and  _180
REMARK   77  A    between atoms: _185  and  _187
REMARK   78  A    between atoms: _187  and  _188
REMARK   79  A    between atoms: _187  and  _190
REMARK   80  A    between atoms: _193  and  _195
REMARK   81  A    between atoms: _195  and  _196
REMARK   82  A    between atoms: _195  and  _198
REMARK   83  A    between atoms: _198  and  _199
REMARK   84  A    between atoms: _204  and  _206
REMARK   85  A    between atoms: _206  and  _207
REMARK   86  A    between atoms: _206  and  _209
REMARK   87  A    between atoms: _209  and  _210
REMARK   88  A    between atoms: _213  and  _215
REMARK   89  A    between atoms: _215  and  _216
REMARK   90  A    between atoms: _218  and  _220
REMARK   91  A    between atoms: _220  and  _221
REMARK   92  A    between atoms: _220  and  _223
REMARK   93  A    between atoms: _223  and  _224
REMARK   94  A    between atoms: _224  and  _225
REMARK   95  A    between atoms: _225  and  _226
REMARK   96  A    between atoms: _235  and  _237
REMARK   97  A    between atoms: _237  and  _238
REMARK   98  A    between atoms: _237  and  _240
REMARK   99  A    between atoms: _240  and  _241
REMARK  100  A    between atoms: _246  and  _248
REMARK  101  A    between atoms: _248  and  _249
REMARK  102  A    between atoms: _248  and  _251
REMARK  103  A    between atoms: _251  and  _252
REMARK  104  A    between atoms: _252  and  _253
REMARK  105  A    between atoms: _253  and  _254
REMARK  106  A    between atoms: _263  and  _265
REMARK  107  A    between atoms: _265  and  _266
REMARK  108  A    between atoms: _265  and  _268
REMARK  109  A    between atoms: _268  and  _269
REMARK  110  A    between atoms: _272  and  _274
REMARK  111  A    between atoms: _274  and  _275
REMARK  112  A    between atoms: _274  and  _277
REMARK  113  A    between atoms: _277  and  _278
REMARK  114  A    between atoms: _281  and  _283
REMARK  115  A    between atoms: _283  and  _284
REMARK  116  A    between atoms: _283  and  _286
REMARK  117  A    between atoms: _286  and  _287
REMARK  118  A    between atoms: _290  and  _292
REMARK  119  A    between atoms: _292  and  _293
REMARK  120  A    between atoms: _292  and  _295
REMARK  121  A    between atoms: _295  and  _296
REMARK  122  A    between atoms: _299  and  _301
REMARK  123  A    between atoms: _301  and  _302
REMARK  124  A    between atoms: _304  and  _306
REMARK  125  A    between atoms: _306  and  _307
REMARK  126  A    between atoms: _310  and  _312
REMARK  127  A    between atoms: _312  and  _313
REMARK  128  A    between atoms: _312  and  _315
REMARK  129  A    between atoms: _315  and  _316
REMARK  130  A    between atoms: _319  and  _321
REMARK  131  A    between atoms: _321  and  _322
REMARK  132  A    between atoms: _321  and  _324
REMARK  133  A    between atoms: _324  and  _325
REMARK  134  A    between atoms: _328  and  _330
REMARK  135  A    between atoms: _330  and  _331
REMARK  136  A    between atoms: _330  and  _333
REMARK  137  A    between atoms: _333  and  _334
REMARK  138  A    between atoms: _337  and  _339
REMARK  139  A    between atoms: _339  and  _340
REMARK  140  A    between atoms: _339  and  _342
REMARK  141  A    between atoms: _345  and  _347
REMARK  142  A    between atoms: _347  and  _348
REMARK  143  A    between atoms: _347  and  _350
REMARK  144  A    between atoms: _350  and  _351
REMARK  145  A    between atoms: _351  and  _352
REMARK  146  A    between atoms: _354  and  _356
REMARK  147  A    between atoms: _356  and  _357
REMARK  148  A    between atoms: _356  and  _359
REMARK  149  A    between atoms: _359  and  _360
REMARK  150  A    between atoms: _363  and  _365
REMARK  151  A    between atoms: _365  and  _366
REMARK  152  A    between atoms: _368  and  _370
REMARK  153  A    between atoms: _370  and  _371
REMARK  154  A    between atoms: _373  and  _375
REMARK  155  A    between atoms: _375  and  _376
REMARK  156  A    between atoms: _375  and  _378
REMARK  157  A    between atoms: _378  and  _379
REMARK  158  A    between atoms: _382  and  _384
REMARK  159  A    between atoms: _384  and  _385
REMARK  160  A    between atoms: _387  and  _389
REMARK  161  A    between atoms: _389  and  _390
REMARK  162  A    between atoms: _392  and  _394
REMARK  163  A    between atoms: _394  and  _395
REMARK  164  A    between atoms: _394  and  _397
REMARK  165  A    between atoms: _397  and  _398
REMARK  166  A    between atoms: _404  and  _406
REMARK  167  A    between atoms: _406  and  _407
REMARK  168  A    between atoms: _406  and  _409
REMARK  169  A    between atoms: _409  and  _410
REMARK  170  A    between atoms: _413  and  _415
REMARK  171  A    between atoms: _415  and  _416
REMARK  172  A    between atoms: _415  and  _418
REMARK  173  A    between atoms: _421  and  _423
REMARK  174  A    between atoms: _423  and  _424
REMARK  175  A    between atoms: _423  and  _426
REMARK  176  A    between atoms: _426  and  _427
REMARK  177  A    between atoms: _430  and  _432
REMARK  178  A    between atoms: _432  and  _433
REMARK  179  A    between atoms: _432  and  _435
REMARK  180  A    between atoms: _435  and  _436
REMARK  181  A    between atoms: _440  and  _441
REMARK  182  A    between atoms: _446  and  _448
REMARK  183  A    between atoms: _448  and  _449
REMARK  184  A    between atoms: _448  and  _451
REMARK  185  A    between atoms: _454  and  _456
REMARK  186  A    between atoms: _456  and  _457
REMARK  187  A    between atoms: _456  and  _459
REMARK  188  A    between atoms: _459  and  _460
REMARK  189  A    between atoms: _465  and  _467
REMARK  190  A    between atoms: _467  and  _468
REMARK  191  A    between atoms: _467  and  _470
REMARK  192  A    between atoms: _470  and  _471
REMARK  193  A    between atoms: _474  and  _476
REMARK  194  A    between atoms: _476  and  _477
REMARK  195  A    between atoms: _476  and  _479
REMARK  196  A    between atoms: _479  and  _480
REMARK  197  A    between atoms: _480  and  _481
REMARK  198  A    between atoms: _481  and  _482
REMARK                            x       y       z     vdW  Elec       q    Type
REMARK                         _______ _______ _______ _____ _____    ______ ____
ROOT
ATOM      1  CG  LYS A   1      -5.932   3.322   3.377  0.00  0.00    -0.000 C 
ENDROOT
BRANCH   1   2
ATOM      2  CB  LYS A   1      -6.924   2.167   3.363  0.00  0.00    +0.025 C 
BRANCH   2   3
ATOM      3  CA  LYS A   1      -6.884   1.223   2.149  0.00  0.00    +0.133 C 
BRANCH   3   4
ATOM      4  N   LYS A   1      -8.216   0.598   2.050  0.00  0.00    -0.239 NA
ATOM      5  H   LYS A   1      -8.380  -0.317   2.515  0.00  0.00    +0.142 HD
ENDBRANCH   3   4
BRANCH   3   6
ATOM      6  C   LYS A   1      -5.758   0.172   2.280  0.00  0.00    +0.224 C 
ATOM      7  O   LYS A   1      -5.897  -0.785   3.026  0.00  0.00    -0.287 OA
ENDBRANCH   3   6
ENDBRANCH   2   3
ENDBRANCH   1   2
BRANCH   1   8
ATOM      8  CD  LYS A   1      -5.897   3.959   4.769  0.00  0.00    -0.024 C 
BRANCH   8   9
ATOM      9  CE  LYS A   1      -5.082   5.271   4.942  0.00  0.00    -0.086 C 
BRANCH   9  10
ATOM     10  NZ  LYS A   1      -5.054   5.680   6.371  0.00  0.00    +0.380 N 
ATOM     11  HZ1 LYS A   1      -4.611   4.928   6.937  0.00  0.00    -0.089 HD
ATOM     12  HZ2 LYS A   1      -6.026   5.839   6.704  0.00  0.00    -0.089 HD
ATOM     13  HZ3 LYS A   1      -4.505   6.558   6.468  0.00  0.00    -0.089 HD
ENDBRANCH   9  10
ENDBRANCH   8   9
ENDBRANCH   1   8
TORSDOF 7
REMARK  Name = ../refined-set-2016/3aid/3aid_pocket.pdb
REMARK  198 active torsions:
REMARK  status: ('A' for Active; 'I' for Inactive)
REMARK    1  A    between atoms: _1  and  _3
REMARK    2  A    between atoms: _3  and  _4
REMARK    3  A    between atoms: _3  and  _6
REMARK    4  A    between atoms: _6  and  _7
REMARK    5  A    between atoms: _7  and  _8
REMARK    6  A    between atoms: _8  and  _9
REMARK    7  A    between atoms: _18  and  _20
REMARK    8  A    between atoms: _20  and  _21
REMARK    9  A    between atoms: _20  and  _23
REMARK   10  A    between atoms: _23  and  _24
REMARK   11  A    between atoms: _27  and  _29
REMARK   12  A    between atoms: _29  and  _30
REMARK   13  A    between atoms: _29  and  _32
REMARK   14  A    between atoms: _32  and  _33
REMARK   15  A    between atoms: _36  and  _38
REMARK   16  A    between atoms: _38  and  _39
REMARK   17  A    between atoms: _38  and  _41
REMARK   18  A    between atoms: _41  and  _42
REMARK   19  A    between atoms: _45  and  _47
REMARK   20  A    between atoms: _47  and  _48
REMARK   21  A    between atoms: _47  and  _50
REMARK   22  A    between atoms: _50  and  _51
REMARK   23  A    between atoms: _54  and  _56
REMARK   24  A    between atoms: _56  and  _57
REMARK   25  A    between atoms: _59  and  _61
REMARK   26  A    between atoms: _61  and  _62
REMARK   27  A    between atoms: _65  and  _67
REMARK   28  A    between atoms: _67  and  _68
REMARK   29  A    between atoms: _67  and  _70
REMARK   30  A    between atoms: _70  and  _71
REMARK   31  A    between atoms: _74  and  _76
REMARK   32  A    between atoms: _76  and  _77
REMARK   33  A    between atoms: _76  and  _79
REMARK   34  A    between atoms: _79  and  _80
REMARK   35  A    between atoms: _83  and  _85
REMARK   36  A    between atoms: _85  and  _86
REMARK   37  A    between atoms: _85  and  _88
REMARK   38  A    between atoms: _88  and  _89
REMARK   39  A    between atoms: _92  and  _94
REMARK   40  A    between atoms: _94  and  _95
REMARK   41  A    between atoms: _94  and  _97
REMARK   42  A    between atoms: _100  and  _102
REMARK   43  A    between atoms: _102  and  _103
REMARK   44  A    between atoms: _102  and  _105
REMARK   45  A    between atoms: _105  and  _106
REMARK   46  A    between atoms: _106  and  _107
REMARK   47  A    between atoms: _107  and  _108
REMARK   48  A    between atoms: _108  and  _109
REMARK   49  A    between atoms: _113  and  _115
REMARK   50  A    between atoms: _115  and  _116
REMARK   51  A    between atoms: _115  and  _118
REMARK   52  A    between atoms: _118  and  _119
REMARK   53  A    between atoms: _122  and  _124
REMARK   54  A    between atoms: _124  and  _125
REMARK   55  A    between atoms: _127  and  _129
REMARK   56  A    between atoms: _129  and  _130
REMARK   57  A    between atoms: _134  and  _135
REMARK   58  A    between atoms: _134  and  _137
REMARK   59  A    between atoms: _137  and  _138
REMARK   60  A    between atoms: _141  and  _143
REMARK   61  A    between atoms: _143  and  _144
REMARK   62  A    between atoms: _146  and  _148
REMARK   63  A    between atoms: _148  and  _149
REMARK   64  A    between atoms: _151  and  _153
REMARK   65  A    between atoms: _153  and  _154
REMARK   66  A    between atoms: _153  and  _156
REMARK   67  A    between atoms: _156  and  _157
REMARK   68  A    between atoms: _160  and  _162
REMARK   69  A    between atoms: _162  and  _163
REMARK   70  A    between atoms: _162  and  _165
REMARK   71  A    between atoms: _165  and  _166
REMARK   72  A    between atoms: _169  and  _171
REMARK   73  A    between atoms: _171  and  _172
REMARK   74  A    between atoms: _171  and  _174
REMARK   75  A    between atoms: _174  and  _175
REMARK   76  A    between atoms: _179  and  _180
REMARK   77  A    between atoms: _185  and  _187
REMARK   78  A    between atoms: _187  and  _188
REMARK   79  A    between atoms: _187  and  _190
REMARK   80  A    between atoms: _193  and  _195
REMARK   81  A    between atoms: _195  and  _196
REMARK   82  A    between atoms: _195  and  _198
REMARK   83  A    between atoms: _198  and  _199
REMARK   84  A    between atoms: _204  and  _206
REMARK   85  A    between atoms: _206  and  _207
REMARK   86  A    between atoms: _206  and  _209
REMARK   87  A    between atoms: _209  and  _210
REMARK   88  A    between atoms: _213  and  _215
REMARK   89  A    between atoms: _215  and  _216
REMARK   90  A    between atoms: _218  and  _220
REMARK   91  A    between atoms: _220  and  _221
REMARK   92  A    between atoms: _220  and  _223
REMARK   93  A    between atoms: _223  and  _224
REMARK   94  A    between atoms: _224  and  _225
REMARK   95  A    between atoms: _225  and  _226
REMARK   96  A    between atoms: _235  and  _237
REMARK   97  A    between atoms: _237  and  _238
REMARK   98  A    between atoms: _237  and  _240
REMARK   99  A    between atoms: _240  and  _241
REMARK  100  A    between atoms: _246  and  _248
REMARK  101  A    between atoms: _248  and  _249
REMARK  102  A    between atoms: _248  and  _251
REMARK  103  A    between atoms: _251  and  _252
REMARK  104  A    between atoms: _252  and  _253
REMARK  105  A    between atoms: _253  and  _254
REMARK  106  A    between atoms: _263  and  _265
REMARK  107  A    between atoms: _265  and  _266
REMARK  108  A    between atoms: _265  and  _268
REMARK  109  A    between atoms: _268  and  _269
REMARK  110  A    between atoms: _272  and  _274
REMARK  111  A    between atoms: _274  and  _275
REMARK  112  A    between atoms: _274  and  _277
REMARK  113  A    between atoms: _277  and  _278
REMARK  114  A    between atoms: _281  and  _283
REMARK  115  A    between atoms: _283  and  _284
REMARK  116  A    between atoms: _283  and  _286
REMARK  117  A    between atoms: _286  and  _287
REMARK  118  A    between atoms: _290  and  _292
REMARK  119  A    between atoms: _292  and  _293
REMARK  120  A    between atoms: _292  and  _295
REMARK  121  A    between atoms: _295  and  _296
REMARK  122  A    between atoms: _299  and  _301
REMARK  123  A    between atoms: _301  and  _302
REMARK  124  A    between atoms: _304  and  _306
REMARK  125  A    between atoms: _306  and  _307
REMARK  126  A    between atoms: _310  and  _312
REMARK  127  A    between atoms: _312  and  _313
REMARK  128  A    between atoms: _312  and  _315
REMARK  129  A    between atoms: _315  and  _316
REMARK  130  A    between atoms: _319  and  _321
REMARK  131  A    between atoms: _321  and  _322
REMARK  132  A    between atoms: _321  and  _324
REMARK  133  A    between atoms: _324  and  _325
REMARK  134  A    between atoms: _328  and  _330
REMARK  135  A    between atoms: _330  and  _331
REMARK  136  A    between atoms: _330  and  _333
REMARK  137  A    between atoms: _333  and  _334
REMARK  138  A    between atoms: _337  and  _339
REMARK  139  A    between atoms: _339  and  _340
REMARK  140  A    between atoms: _339  and  _342
REMARK  141  A    between atoms: _345  and  _347
REMARK  142  A    between atoms: _347  and  _348
REMARK  143  A    between atoms: _347  and  _350
REMARK  144  A    between atoms: _350  and  _351
REMARK  145  A    between atoms: _351  and  _352
REMARK  146  A    between atoms: _354  and  _356
REMARK  147  A    between atoms: _356  and  _357
REMARK  148  A    between atoms: _356  and  _359
REMARK  149  A    between atoms: _359  and  _360
REMARK  150  A    between atoms: _363  and  _365
REMARK  151  A    between atoms: _365  and  _366
REMARK  152  A    between atoms: _368  and  _370
REMARK  153  A    between atoms: _370  and  _371
REMARK  154  A    between atoms: _373  and  _375
REMARK  155  A    between atoms: _375  and  _376
REMARK  156  A    between atoms: _375  and  _378
REMARK  157  A    between atoms: _378  and  _379
REMARK  158  A    between atoms: _382  and  _384
REMARK  159  A    between atoms: _384  and  _385
REMARK  160  A    between atoms: _387  and  _389
REMARK  161  A    between atoms: _389  and  _390
REMARK  162  A    between atoms: _392  and  _394
REMARK  163  A    between atoms: _394  and  _395
REMARK  164  A    between atoms: _394  and  _397
REMARK  165  A    between atoms: _397  and  _398
REMARK  166  A    between atoms: _404  and  _406
REMARK  167  A    between atoms: _406  and  _407
REMARK  168  A    between atoms: _406  and  _409
REMARK  169  A    between atoms: _409  and  _410
REMARK  170  A    between atoms: _413  and  _415
REMARK  171  A    between atoms: _415  and  _416
REMARK  172  A    between atoms: _415  and  _418
REMARK  173  A    between atoms: _421  and  _423
REMARK  174  A    between atoms: _423  and  _424
REMARK  175  A    between atoms: _423  and  _426
REMARK  176  A    between atoms: _426  and  _427
REMARK  177  A    between atoms: _430  and  _432
REMARK  178  A    between atoms: _432  and  _433
REMARK  179  A    between atoms: _432  and  _435
REMARK  180  A    between atoms: _435  and  _436
REMARK  181  A    between atoms: _440  and  _441
REMARK  182  A    between atoms: _446  and  _448
REMARK  183  A    between atoms: _448  and  _449
REMARK  184  A    between atoms: _448  and  _451
REMARK  185  A    between atoms: _454  and  _456
REMARK  186  A    between atoms: _456  and  _457
REMARK  187  A    between atoms: _456  and  _459
REMARK  188  A    between atoms: _459  and  _460
REMARK  189  A    between atoms: _465  and  _467
REMARK  190  A    between atoms: _467  and  _468
REMARK  191  A    between atoms: _467  and  _470
REMARK  192  A    between atoms: _470  and  _471
REMARK  193  A    between atoms: _474  and  _476
REMARK  194  A    between atoms: _476  and  _477
REMARK  195  A    between atoms: _476  and  _479
REMARK  196  A    between atoms: _479  and  _480
REMARK  197  A    between atoms: _480  and  _481
REMARK  198  A    between atoms: _481  and  _482
REMARK                            x       y       z     vdW  Elec       q    Type
REMARK                         _______ _______ _______ _____ _____    ______ ____
ROOT
ATOM      1  C   GLY A   3       6.032  -2.371   7.671  0.00  0.00    +0.246 C 
ATOM      2  N   ILE A   4       6.824  -2.604   8.737  0.00  0.00    -0.282 N 
ATOM      3  H   ILE A   4       6.531  -2.503   9.730  0.00  0.00    +0.155 HD
ATOM      4  CA  ILE A   4       8.168  -3.023   8.290  0.00  0.00    +0.081 C 
ATOM      5  O   GLY A   3       6.401  -2.675   6.548  0.00  0.00    -0.273 OA
ENDROOT
BRANCH   4   6
ATOM      6  C   ILE A   4       8.324  -4.364   7.545  0.00  0.00    +0.256 C 
ATOM      7  N   GLY A   5       7.463  -5.341   7.897  0.00  0.00    -0.292 N 
ATOM      8  H   GLY A   5       6.767  -5.204   8.658  0.00  0.00    +0.150 HD
ATOM      9  O   ILE A   4       9.159  -4.511   6.670  0.00  0.00    -0.269 OA
BRANCH   7  10
ATOM     10  CA  GLY A   5       7.553  -6.613   7.154  0.00  0.00    +0.176 C 
BRANCH  10  11
ATOM     11  C   GLY A   5       6.710  -6.733   5.871  0.00  0.00    +0.243 C 
ATOM     12  N   GLY A   6       6.075  -5.619   5.421  0.00  0.00    -0.296 N 
ATOM     13  H   GLY A   6       6.146  -4.740   5.972  0.00  0.00    +0.150 HD
ATOM     14  O   GLY A   5       6.612  -7.796   5.302  0.00  0.00    -0.273 OA
BRANCH  12  15
ATOM     15  CA  GLY A   6       5.285  -5.622   4.169  0.00  0.00    +0.163 C 
BRANCH  15  16
ATOM     16  C   GLY A   6       3.992  -4.783   4.145  0.00  0.00    +0.229 C 
ATOM     17  O   GLY A   6       3.774  -3.944   5.001  0.00  0.00    -0.286 OA
ENDBRANCH  15  16
ENDBRANCH  12  15
ENDBRANCH  10  11
ENDBRANCH   7  10
ENDBRANCH   4   6
BRANCH   4  18
ATOM     18  CB  ILE A   4       9.340  -2.791   9.305  0.00  0.00    +0.041 C 
ATOM     19  CG2 ILE A   4       9.056  -1.788  10.438  0.00  0.00    +0.006 C 
BRANCH  18  20
ATOM     20  CG1 ILE A   4       9.950  -4.057   9.888  0.00  0.00    +0.006 C 
ATOM     21  CD1 ILE A   4      11.321  -3.759  10.485  0.00  0.00    +0.000 C 
ENDBRANCH  18  20
ENDBRANCH   4  18
BRANCH   1  22
ATOM     22  CA  GLY A   3       4.667  -1.717   7.878  0.00  0.00    +0.176 C 
BRANCH  22  25
ATOM     23  C   GLY A   2       3.501  -0.450   6.124  0.00  0.00    +0.243 C 
ATOM     24  O   GLY A   2       3.690   0.611   6.685  0.00  0.00    -0.273 OA
ATOM     25  N   GLY A   3       3.872  -1.638   6.630  0.00  0.00    -0.295 N 
ATOM     26  H   GLY A   3       3.598  -2.513   6.140  0.00  0.00    +0.150 HD
BRANCH  23  27
ATOM     27  CA  GLY A   2       2.810  -0.455   4.774  0.00  0.00    +0.176 C 
BRANCH  27  30
ATOM     28  C   ILE A   1       0.461  -0.453   4.862  0.00  0.00    +0.238 C 
ATOM     29  O   ILE A   1       0.579  -1.641   5.090  0.00  0.00    -0.274 OA
ATOM     30  N   GLY A   2       1.541   0.287   4.685  0.00  0.00    -0.296 N 
ATOM     31  H   GLY A   2       1.499   1.309   4.498  0.00  0.00    +0.150 HD
BRANCH  28  32
ATOM     32  CA  ILE A   1      -0.898   0.272   4.742  0.00  0.00    +0.145 C 
BRANCH  32  33
ATOM     33  N   ILE A   1      -1.967  -0.307   3.889  0.00  0.00    -0.238 NA
ATOM     34  H   ILE A   1      -2.419  -1.205   4.154  0.00  0.00    +0.142 HD
ENDBRANCH  32  33
BRANCH  32  35
ATOM     35  CB  ILE A   1      -1.466   0.587   6.123  0.00  0.00    +0.025 C 
ATOM     36  CG2 ILE A   1      -2.734   1.446   5.944  0.00  0.00    +0.002 C 
BRANCH  35  37
ATOM     37  CG1 ILE A   1      -1.712  -0.683   6.942  0.00  0.00    +0.002 C 
ATOM     38  CD1 ILE A   1      -1.279  -0.564   8.399  0.00  0.00    +0.000 C 
ENDBRANCH  35  37
ENDBRANCH  32  35
ENDBRANCH  28  32
ENDBRANCH  27  30
ENDBRANCH  23  27
ENDBRANCH  22  25
ENDBRANCH   1  22
TORSDOF 15
REMARK  Name = ../refined-set-2016/3aid/3aid_pocket.pdb
REMARK  198 active torsions:
REMARK  status: ('A' for Active; 'I' for Inactive)
REMARK    1  A    between atoms: _1  and  _3
REMARK    2  A    between atoms: _3  and  _4
REMARK    3  A    between atoms: _3  and  _6
REMARK    4  A    between atoms: _6  and  _7
REMARK    5  A    between atoms: _7  and  _8
REMARK    6  A    between atoms: _8  and  _9
REMARK    7  A    between atoms: _18  and  _20
REMARK    8  A    between atoms: _20  and  _21
REMARK    9  A    between atoms: _20  and  _23
REMARK   10  A    between atoms: _23  and  _24
REMARK   11  A    between atoms: _27  and  _29
REMARK   12  A    between atoms: _29  and  _30
REMARK   13  A    between atoms: _29  and  _32
REMARK   14  A    between atoms: _32  and  _33
REMARK   15  A    between atoms: _36  and  _38
REMARK   16  A    between atoms: _38  and  _39
REMARK   17  A    between atoms: _38  and  _41
REMARK   18  A    between atoms: _41  and  _42
REMARK   19  A    between atoms: _45  and  _47
REMARK   20  A    between atoms: _47  and  _48
REMARK   21  A    between atoms: _47  and  _50
REMARK   22  A    between atoms: _50  and  _51
REMARK   23  A    between atoms: _54  and  _56
REMARK   24  A    between atoms: _56  and  _57
REMARK   25  A    between atoms: _59  and  _61
REMARK   26  A    between atoms: _61  and  _62
REMARK   27  A    between atoms: _65  and  _67
REMARK   28  A    between atoms: _67  and  _68
REMARK   29  A    between atoms: _67  and  _70
REMARK   30  A    between atoms: _70  and  _71
REMARK   31  A    between atoms: _74  and  _76
REMARK   32  A    between atoms: _76  and  _77
REMARK   33  A    between atoms: _76  and  _79
REMARK   34  A    between atoms: _79  and  _80
REMARK   35  A    between atoms: _83  and  _85
REMARK   36  A    between atoms: _85  and  _86
REMARK   37  A    between atoms: _85  and  _88
REMARK   38  A    between atoms: _88  and  _89
REMARK   39  A    between atoms: _92  and  _94
REMARK   40  A    between atoms: _94  and  _95
REMARK   41  A    between atoms: _94  and  _97
REMARK   42  A    between atoms: _100  and  _102
REMARK   43  A    between atoms: _102  and  _103
REMARK   44  A    between atoms: _102  and  _105
REMARK   45  A    between atoms: _105  and  _106
REMARK   46  A    between atoms: _106  and  _107
REMARK   47  A    between atoms: _107  and  _108
REMARK   48  A    between atoms: _108  and  _109
REMARK   49  A    between atoms: _113  and  _115
REMARK   50  A    between atoms: _115  and  _116
REMARK   51  A    between atoms: _115  and  _118
REMARK   52  A    between atoms: _118  and  _119
REMARK   53  A    between atoms: _122  and  _124
REMARK   54  A    between atoms: _124  and  _125
REMARK   55  A    between atoms: _127  and  _129
REMARK   56  A    between atoms: _129  and  _130
REMARK   57  A    between atoms: _134  and  _135
REMARK   58  A    between atoms: _134  and  _137
REMARK   59  A    between atoms: _137  and  _138
REMARK   60  A    between atoms: _141  and  _143
REMARK   61  A    between atoms: _143  and  _144
REMARK   62  A    between atoms: _146  and  _148
REMARK   63  A    between atoms: _148  and  _149
REMARK   64  A    between atoms: _151  and  _153
REMARK   65  A    between atoms: _153  and  _154
REMARK   66  A    between atoms: _153  and  _156
REMARK   67  A    between atoms: _156  and  _157
REMARK   68  A    between atoms: _160  and  _162
REMARK   69  A    between atoms: _162  and  _163
REMARK   70  A    between atoms: _162  and  _165
REMARK   71  A    between atoms: _165  and  _166
REMARK   72  A    between atoms: _169  and  _171
REMARK   73  A    between atoms: _171  and  _172
REMARK   74  A    between atoms: _171  and  _174
REMARK   75  A    between atoms: _174  and  _175
REMARK   76  A    between atoms: _179  and  _180
REMARK   77  A    between atoms: _185  and  _187
REMARK   78  A    between atoms: _187  and  _188
REMARK   79  A    between atoms: _187  and  _190
REMARK   80  A    between atoms: _193  and  _195
REMARK   81  A    between atoms: _195  and  _196
REMARK   82  A    between atoms: _195  and  _198
REMARK   83  A    between atoms: _198  and  _199
REMARK   84  A    between atoms: _204  and  _206
REMARK   85  A    between atoms: _206  and  _207
REMARK   86  A    between atoms: _206  and  _209
REMARK   87  A    between atoms: _209  and  _210
REMARK   88  A    between atoms: _213  and  _215
REMARK   89  A    between atoms: _215  and  _216
REMARK   90  A    between atoms: _218  and  _220
REMARK   91  A    between atoms: _220  and  _221
REMARK   92  A    between atoms: _220  and  _223
REMARK   93  A    between atoms: _223  and  _224
REMARK   94  A    between atoms: _224  and  _225
REMARK   95  A    between atoms: _225  and  _226
REMARK   96  A    between atoms: _235  and  _237
REMARK   97  A    between atoms: _237  and  _238
REMARK   98  A    between atoms: _237  and  _240
REMARK   99  A    between atoms: _240  and  _241
REMARK  100  A    between atoms: _246  and  _248
REMARK  101  A    between atoms: _248  and  _249
REMARK  102  A    between atoms: _248  and  _251
REMARK  103  A    between atoms: _251  and  _252
REMARK  104  A    between atoms: _252  and  _253
REMARK  105  A    between atoms: _253  and  _254
REMARK  106  A    between atoms: _263  and  _265
REMARK  107  A    between atoms: _265  and  _266
REMARK  108  A    between atoms: _265  and  _268
REMARK  109  A    between atoms: _268  and  _269
REMARK  110  A    between atoms: _272  and  _274
REMARK  111  A    between atoms: _274  and  _275
REMARK  112  A    between atoms: _274  and  _277
REMARK  113  A    between atoms: _277  and  _278
REMARK  114  A    between atoms: _281  and  _283
REMARK  115  A    between atoms: _283  and  _284
REMARK  116  A    between atoms: _283  and  _286
REMARK  117  A    between atoms: _286  and  _287
REMARK  118  A    between atoms: _290  and  _292
REMARK  119  A    between atoms: _292  and  _293
REMARK  120  A    between atoms: _292  and  _295
REMARK  121  A    between atoms: _295  and  _296
REMARK  122  A    between atoms: _299  and  _301
REMARK  123  A    between atoms: _301  and  _302
REMARK  124  A    between atoms: _304  and  _306
REMARK  125  A    between atoms: _306  and  _307
REMARK  126  A    between atoms: _310  and  _312
REMARK  127  A    between atoms: _312  and  _313
REMARK  128  A    between atoms: _312  and  _315
REMARK  129  A    between atoms: _315  and  _316
REMARK  130  A    between atoms: _319  and  _321
REMARK  131  A    between atoms: _321  and  _322
REMARK  132  A    between atoms: _321  and  _324
REMARK  133  A    between atoms: _324  and  _325
REMARK  134  A    between atoms: _328  and  _330
REMARK  135  A    between atoms: _330  and  _331
REMARK  136  A    between atoms: _330  and  _333
REMARK  137  A    between atoms: _333  and  _334
REMARK  138  A    between atoms: _337  and  _339
REMARK  139  A    between atoms: _339  and  _340
REMARK  140  A    between atoms: _339  and  _342
REMARK  141  A    between atoms: _345  and  _347
REMARK  142  A    between atoms: _347  and  _348
REMARK  143  A    between atoms: _347  and  _350
REMARK  144  A    between atoms: _350  and  _351
REMARK  145  A    between atoms: _351  and  _352
REMARK  146  A    between atoms: _354  and  _356
REMARK  147  A    between atoms: _356  and  _357
REMARK  148  A    between atoms: _356  and  _359
REMARK  149  A    between atoms: _359  and  _360
REMARK  150  A    between atoms: _363  and  _365
REMARK  151  A    between atoms: _365  and  _366
REMARK  152  A    between atoms: _368  and  _370
REMARK  153  A    between atoms: _370  and  _371
REMARK  154  A    between atoms: _373  and  _375
REMARK  155  A    between atoms: _375  and  _376
REMARK  156  A    between atoms: _375  and  _378
REMARK  157  A    between atoms: _378  and  _379
REMARK  158  A    between atoms: _382  and  _384
REMARK  159  A    between atoms: _384  and  _385
REMARK  160  A    between atoms: _387  and  _389
REMARK  161  A    between atoms: _389  and  _390
REMARK  162  A    between atoms: _392  and  _394
REMARK  163  A    between atoms: _394  and  _395
REMARK  164  A    between atoms: _394  and  _397
REMARK  165  A    between atoms: _397  and  _398
REMARK  166  A    between atoms: _404  and  _406
REMARK  167  A    between atoms: _406  and  _407
REMARK  168  A    between atoms: _406  and  _409
REMARK  169  A    between atoms: _409  and  _410
REMARK  170  A    between atoms: _413  and  _415
REMARK  171  A    between atoms: _415  and  _416
REMARK  172  A    between atoms: _415  and  _418
REMARK  173  A    between atoms: _421  and  _423
REMARK  174  A    between atoms: _423  and  _424
REMARK  175  A    between atoms: _423  and  _426
REMARK  176  A    between atoms: _426  and  _427
REMARK  177  A    between atoms: _430  and  _432
REMARK  178  A    between atoms: _432  and  _433
REMARK  179  A    between atoms: _432  and  _435
REMARK  180  A    between atoms: _435  and  _436
REMARK  181  A    between atoms: _440  and  _441
REMARK  182  A    between atoms: _446  and  _448
REMARK  183  A    between atoms: _448  and  _449
REMARK  184  A    between atoms: _448  and  _451
REMARK  185  A    between atoms: _454  and  _456
REMARK  186  A    between atoms: _456  and  _457
REMARK  187  A    between atoms: _456  and  _459
REMARK  188  A    between atoms: _459  and  _460
REMARK  189  A    between atoms: _465  and  _467
REMARK  190  A    between atoms: _467  and  _468
REMARK  191  A    between atoms: _467  and  _470
REMARK  192  A    between atoms: _470  and  _471
REMARK  193  A    between atoms: _474  and  _476
REMARK  194  A    between atoms: _476  and  _477
REMARK  195  A    between atoms: _476  and  _479
REMARK  196  A    between atoms: _479  and  _480
REMARK  197  A    between atoms: _480  and  _481
REMARK  198  A    between atoms: _481  and  _482
REMARK                            x       y       z     vdW  Elec       q    Type
REMARK                         _______ _______ _______ _____ _____    ______ ____
ROOT
ATOM      1  CA  ILE A   1      -1.485  -4.944   4.682  0.00  0.00    +0.133 C 
ENDROOT
BRANCH   1   2
ATOM      2  N   ILE A   1      -0.129  -4.404   4.444  0.00  0.00    -0.239 NA
ATOM      3  H   ILE A   1       0.218  -3.550   4.926  0.00  0.00    +0.142 HD
ENDBRANCH   1   2
BRANCH   1   4
ATOM      4  CB  ILE A   1      -1.731  -5.333   6.163  0.00  0.00    +0.023 C 
ATOM      5  CG2 ILE A   1      -0.682  -6.319   6.686  0.00  0.00    +0.002 C 
BRANCH   4   6
ATOM      6  CG1 ILE A   1      -1.860  -4.152   7.112  0.00  0.00    +0.002 C 
ATOM      7  CD1 ILE A   1      -2.069  -4.596   8.565  0.00  0.00    +0.000 C 
ENDBRANCH   4   6
ENDBRANCH   1   4
BRANCH   1   8
ATOM      8  C   ILE A   1      -2.705  -4.183   4.103  0.00  0.00    +0.224 C 
ATOM      9  O   ILE A   1      -2.698  -3.007   3.755  0.00  0.00    -0.287 OA
ENDBRANCH   1   8
TORSDOF 4
REMARK  Name = ../refined-set-2016/3aid/3aid_pocket.pdb
REMARK  198 active torsions:
REMARK  status: ('A' for Active; 'I' for Inactive)
REMARK    1  A    between atoms: _1  and  _3
REMARK    2  A    between atoms: _3  and  _4
REMARK    3  A    between atoms: _3  and  _6
REMARK    4  A    between atoms: _6  and  _7
REMARK    5  A    between atoms: _7  and  _8
REMARK    6  A    between atoms: _8  and  _9
REMARK    7  A    between atoms: _18  and  _20
REMARK    8  A    between atoms: _20  and  _21
REMARK    9  A    between atoms: _20  and  _23
REMARK   10  A    between atoms: _23  and  _24
REMARK   11  A    between atoms: _27  and  _29
REMARK   12  A    between atoms: _29  and  _30
REMARK   13  A    between atoms: _29  and  _32
REMARK   14  A    between atoms: _32  and  _33
REMARK   15  A    between atoms: _36  and  _38
REMARK   16  A    between atoms: _38  and  _39
REMARK   17  A    between atoms: _38  and  _41
REMARK   18  A    between atoms: _41  and  _42
REMARK   19  A    between atoms: _45  and  _47
REMARK   20  A    between atoms: _47  and  _48
REMARK   21  A    between atoms: _47  and  _50
REMARK   22  A    between atoms: _50  and  _51
REMARK   23  A    between atoms: _54  and  _56
REMARK   24  A    between atoms: _56  and  _57
REMARK   25  A    between atoms: _59  and  _61
REMARK   26  A    between atoms: _61  and  _62
REMARK   27  A    between atoms: _65  and  _67
REMARK   28  A    between atoms: _67  and  _68
REMARK   29  A    between atoms: _67  and  _70
REMARK   30  A    between atoms: _70  and  _71
REMARK   31  A    between atoms: _74  and  _76
REMARK   32  A    between atoms: _76  and  _77
REMARK   33  A    between atoms: _76  and  _79
REMARK   34  A    between atoms: _79  and  _80
REMARK   35  A    between atoms: _83  and  _85
REMARK   36  A    between atoms: _85  and  _86
REMARK   37  A    between atoms: _85  and  _88
REMARK   38  A    between atoms: _88  and  _89
REMARK   39  A    between atoms: _92  and  _94
REMARK   40  A    between atoms: _94  and  _95
REMARK   41  A    between atoms: _94  and  _97
REMARK   42  A    between atoms: _100  and  _102
REMARK   43  A    between atoms: _102  and  _103
REMARK   44  A    between atoms: _102  and  _105
REMARK   45  A    between atoms: _105  and  _106
REMARK   46  A    between atoms: _106  and  _107
REMARK   47  A    between atoms: _107  and  _108
REMARK   48  A    between atoms: _108  and  _109
REMARK   49  A    between atoms: _113  and  _115
REMARK   50  A    between atoms: _115  and  _116
REMARK   51  A    between atoms: _115  and  _118
REMARK   52  A    between atoms: _118  and  _119
REMARK   53  A    between atoms: _122  and  _124
REMARK   54  A    between atoms: _124  and  _125
REMARK   55  A    between atoms: _127  and  _129
REMARK   56  A    between atoms: _129  and  _130
REMARK   57  A    between atoms: _134  and  _135
REMARK   58  A    between atoms: _134  and  _137
REMARK   59  A    between atoms: _137  and  _138
REMARK   60  A    between atoms: _141  and  _143
REMARK   61  A    between atoms: _143  and  _144
REMARK   62  A    between atoms: _146  and  _148
REMARK   63  A    between atoms: _148  and  _149
REMARK   64  A    between atoms: _151  and  _153
REMARK   65  A    between atoms: _153  and  _154
REMARK   66  A    between atoms: _153  and  _156
REMARK   67  A    between atoms: _156  and  _157
REMARK   68  A    between atoms: _160  and  _162
REMARK   69  A    between atoms: _162  and  _163
REMARK   70  A    between atoms: _162  and  _165
REMARK   71  A    between atoms: _165  and  _166
REMARK   72  A    between atoms: _169  and  _171
REMARK   73  A    between atoms: _171  and  _172
REMARK   74  A    between atoms: _171  and  _174
REMARK   75  A    between atoms: _174  and  _175
REMARK   76  A    between atoms: _179  and  _180
REMARK   77  A    between atoms: _185  and  _187
REMARK   78  A    between atoms: _187  and  _188
REMARK   79  A    between atoms: _187  and  _190
REMARK   80  A    between atoms: _193  and  _195
REMARK   81  A    between atoms: _195  and  _196
REMARK   82  A    between atoms: _195  and  _198
REMARK   83  A    between atoms: _198  and  _199
REMARK   84  A    between atoms: _204  and  _206
REMARK   85  A    between atoms: _206  and  _207
REMARK   86  A    between atoms: _206  and  _209
REMARK   87  A    between atoms: _209  and  _210
REMARK   88  A    between atoms: _213  and  _215
REMARK   89  A    between atoms: _215  and  _216
REMARK   90  A    between atoms: _218  and  _220
REMARK   91  A    between atoms: _220  and  _221
REMARK   92  A    between atoms: _220  and  _223
REMARK   93  A    between atoms: _223  and  _224
REMARK   94  A    between atoms: _224  and  _225
REMARK   95  A    between atoms: _225  and  _226
REMARK   96  A    between atoms: _235  and  _237
REMARK   97  A    between atoms: _237  and  _238
REMARK   98  A    between atoms: _237  and  _240
REMARK   99  A    between atoms: _240  and  _241
REMARK  100  A    between atoms: _246  and  _248
REMARK  101  A    between atoms: _248  and  _249
REMARK  102  A    between atoms: _248  and  _251
REMARK  103  A    between atoms: _251  and  _252
REMARK  104  A    between atoms: _252  and  _253
REMARK  105  A    between atoms: _253  and  _254
REMARK  106  A    between atoms: _263  and  _265
REMARK  107  A    between atoms: _265  and  _266
REMARK  108  A    between atoms: _265  and  _268
REMARK  109  A    between atoms: _268  and  _269
REMARK  110  A    between atoms: _272  and  _274
REMARK  111  A    between atoms: _274  and  _275
REMARK  112  A    between atoms: _274  and  _277
REMARK  113  A    between atoms: _277  and  _278
REMARK  114  A    between atoms: _281  and  _283
REMARK  115  A    between atoms: _283  and  _284
REMARK  116  A    between atoms: _283  and  _286
REMARK  117  A    between atoms: _286  and  _287
REMARK  118  A    between atoms: _290  and  _292
REMARK  119  A    between atoms: _292  and  _293
REMARK  120  A    between atoms: _292  and  _295
REMARK  121  A    between atoms: _295  and  _296
REMARK  122  A    between atoms: _299  and  _301
REMARK  123  A    between atoms: _301  and  _302
REMARK  124  A    between atoms: _304  and  _306
REMARK  125  A    between atoms: _306  and  _307
REMARK  126  A    between atoms: _310  and  _312
REMARK  127  A    between atoms: _312  and  _313
REMARK  128  A    between atoms: _312  and  _315
REMARK  129  A    between atoms: _315  and  _316
REMARK  130  A    between atoms: _319  and  _321
REMARK  131  A    between atoms: _321  and  _322
REMARK  132  A    between atoms: _321  and  _324
REMARK  133  A    between atoms: _324  and  _325
REMARK  134  A    between atoms: _328  and  _330
REMARK  135  A    between atoms: _330  and  _331
REMARK  136  A    between atoms: _330  and  _333
REMARK  137  A    between atoms: _333  and  _334
REMARK  138  A    between atoms: _337  and  _339
REMARK  139  A    between atoms: _339  and  _340
REMARK  140  A    between atoms: _339  and  _342
REMARK  141  A    between atoms: _345  and  _347
REMARK  142  A    between atoms: _347  and  _348
REMARK  143  A    between atoms: _347  and  _350
REMARK  144  A    between atoms: _350  and  _351
REMARK  145  A    between atoms: _351  and  _352
REMARK  146  A    between atoms: _354  and  _356
REMARK  147  A    between atoms: _356  and  _357
REMARK  148  A    between atoms: _356  and  _359
REMARK  149  A    between atoms: _359  and  _360
REMARK  150  A    between atoms: _363  and  _365
REMARK  151  A    between atoms: _365  and  _366
REMARK  152  A    between atoms: _368  and  _370
REMARK  153  A    between atoms: _370  and  _371
REMARK  154  A    between atoms: _373  and  _375
REMARK  155  A    between atoms: _375  and  _376
REMARK  156  A    between atoms: _375  and  _378
REMARK  157  A    between atoms: _378  and  _379
REMARK  158  A    between atoms: _382  and  _384
REMARK  159  A    between atoms: _384  and  _385
REMARK  160  A    between atoms: _387  and  _389
REMARK  161  A    between atoms: _389  and  _390
REMARK  162  A    between atoms: _392  and  _394
REMARK  163  A    between atoms: _394  and  _395
REMARK  164  A    between atoms: _394  and  _397
REMARK  165  A    between atoms: _397  and  _398
REMARK  166  A    between atoms: _404  and  _406
REMARK  167  A    between atoms: _406  and  _407
REMARK  168  A    between atoms: _406  and  _409
REMARK  169  A    between atoms: _409  and  _410
REMARK  170  A    between atoms: _413  and  _415
REMARK  171  A    between atoms: _415  and  _416
REMARK  172  A    between atoms: _415  and  _418
REMARK  173  A    between atoms: _421  and  _423
REMARK  174  A    between atoms: _423  and  _424
REMARK  175  A    between atoms: _423  and  _426
REMARK  176  A    between atoms: _426  and  _427
REMARK  177  A    between atoms: _430  and  _432
REMARK  178  A    between atoms: _432  and  _433
REMARK  179  A    between atoms: _432  and  _435
REMARK  180  A    between atoms: _435  and  _436
REMARK  181  A    between atoms: _440  and  _441
REMARK  182  A    between atoms: _446  and  _448
REMARK  183  A    between atoms: _448  and  _449
REMARK  184  A    between atoms: _448  and  _451
REMARK  185  A    between atoms: _454  and  _456
REMARK  186  A    between atoms: _456  and  _457
REMARK  187  A    between atoms: _456  and  _459
REMARK  188  A    between atoms: _459  and  _460
REMARK  189  A    between atoms: _465  and  _467
REMARK  190  A    between atoms: _467  and  _468
REMARK  191  A    between atoms: _467  and  _470
REMARK  192  A    between atoms: _470  and  _471
REMARK  193  A    between atoms: _474  and  _476
REMARK  194  A    between atoms: _476  and  _477
REMARK  195  A    between atoms: _476  and  _479
REMARK  196  A    between atoms: _479  and  _480
REMARK  197  A    between atoms: _480  and  _481
REMARK  198  A    between atoms: _481  and  _482
REMARK                            x       y       z     vdW  Elec       q    Type
REMARK                         _______ _______ _______ _____ _____    ______ ____
ROOT
ATOM      1  CA  LEU A   1      -8.560   0.993  10.582  0.00  0.00    +0.133 C 
ENDROOT
BRANCH   1   2
ATOM      2  N   LEU A   1      -8.827   1.882  11.712  0.00  0.00    -0.239 NA
ATOM      3  H   LEU A   1      -8.107   2.014  12.450  0.00  0.00    +0.142 HD
ENDBRANCH   1   2
BRANCH   1   4
ATOM      4  C   LEU A   1      -8.758  -0.411  11.091  0.00  0.00    +0.224 C 
ATOM      5  O   LEU A   1      -8.180  -0.689  12.133  0.00  0.00    -0.287 OA
ENDBRANCH   1   4
BRANCH   1   6
ATOM      6  CB  LEU A   1      -7.096   1.080  10.170  0.00  0.00    +0.025 C 
BRANCH   6   7
ATOM      7  CG  LEU A   1      -6.554   2.116   9.182  0.00  0.00    +0.002 C 
ATOM      8  CD2 LEU A   1      -5.065   2.380   9.472  0.00  0.00    +0.000 C 
ATOM      9  CD1 LEU A   1      -7.371   3.382   9.044  0.00  0.00    +0.000 C 
ENDBRANCH   6   7
ENDBRANCH   1   6
TORSDOF 4
REMARK  Name = ../refined-set-2016/3aid/3aid_pocket.pdb
REMARK  198 active torsions:
REMARK  status: ('A' for Active; 'I' for Inactive)
REMARK    1  A    between atoms: _1  and  _3
REMARK    2  A    between atoms: _3  and  _4
REMARK    3  A    between atoms: _3  and  _6
REMARK    4  A    between atoms: _6  and  _7
REMARK    5  A    between atoms: _7  and  _8
REMARK    6  A    between atoms: _8  and  _9
REMARK    7  A    between atoms: _18  and  _20
REMARK    8  A    between atoms: _20  and  _21
REMARK    9  A    between atoms: _20  and  _23
REMARK   10  A    between atoms: _23  and  _24
REMARK   11  A    between atoms: _27  and  _29
REMARK   12  A    between atoms: _29  and  _30
REMARK   13  A    between atoms: _29  and  _32
REMARK   14  A    between atoms: _32  and  _33
REMARK   15  A    between atoms: _36  and  _38
REMARK   16  A    between atoms: _38  and  _39
REMARK   17  A    between atoms: _38  and  _41
REMARK   18  A    between atoms: _41  and  _42
REMARK   19  A    between atoms: _45  and  _47
REMARK   20  A    between atoms: _47  and  _48
REMARK   21  A    between atoms: _47  and  _50
REMARK   22  A    between atoms: _50  and  _51
REMARK   23  A    between atoms: _54  and  _56
REMARK   24  A    between atoms: _56  and  _57
REMARK   25  A    between atoms: _59  and  _61
REMARK   26  A    between atoms: _61  and  _62
REMARK   27  A    between atoms: _65  and  _67
REMARK   28  A    between atoms: _67  and  _68
REMARK   29  A    between atoms: _67  and  _70
REMARK   30  A    between atoms: _70  and  _71
REMARK   31  A    between atoms: _74  and  _76
REMARK   32  A    between atoms: _76  and  _77
REMARK   33  A    between atoms: _76  and  _79
REMARK   34  A    between atoms: _79  and  _80
REMARK   35  A    between atoms: _83  and  _85
REMARK   36  A    between atoms: _85  and  _86
REMARK   37  A    between atoms: _85  and  _88
REMARK   38  A    between atoms: _88  and  _89
REMARK   39  A    between atoms: _92  and  _94
REMARK   40  A    between atoms: _94  and  _95
REMARK   41  A    between atoms: _94  and  _97
REMARK   42  A    between atoms: _100  and  _102
REMARK   43  A    between atoms: _102  and  _103
REMARK   44  A    between atoms: _102  and  _105
REMARK   45  A    between atoms: _105  and  _106
REMARK   46  A    between atoms: _106  and  _107
REMARK   47  A    between atoms: _107  and  _108
REMARK   48  A    between atoms: _108  and  _109
REMARK   49  A    between atoms: _113  and  _115
REMARK   50  A    between atoms: _115  and  _116
REMARK   51  A    between atoms: _115  and  _118
REMARK   52  A    between atoms: _118  and  _119
REMARK   53  A    between atoms: _122  and  _124
REMARK   54  A    between atoms: _124  and  _125
REMARK   55  A    between atoms: _127  and  _129
REMARK   56  A    between atoms: _129  and  _130
REMARK   57  A    between atoms: _134  and  _135
REMARK   58  A    between atoms: _134  and  _137
REMARK   59  A    between atoms: _137  and  _138
REMARK   60  A    between atoms: _141  and  _143
REMARK   61  A    between atoms: _143  and  _144
REMARK   62  A    between atoms: _146  and  _148
REMARK   63  A    between atoms: _148  and  _149
REMARK   64  A    between atoms: _151  and  _153
REMARK   65  A    between atoms: _153  and  _154
REMARK   66  A    between atoms: _153  and  _156
REMARK   67  A    between atoms: _156  and  _157
REMARK   68  A    between atoms: _160  and  _162
REMARK   69  A    between atoms: _162  and  _163
REMARK   70  A    between atoms: _162  and  _165
REMARK   71  A    between atoms: _165  and  _166
REMARK   72  A    between atoms: _169  and  _171
REMARK   73  A    between atoms: _171  and  _172
REMARK   74  A    between atoms: _171  and  _174
REMARK   75  A    between atoms: _174  and  _175
REMARK   76  A    between atoms: _179  and  _180
REMARK   77  A    between atoms: _185  and  _187
REMARK   78  A    between atoms: _187  and  _188
REMARK   79  A    between atoms: _187  and  _190
REMARK   80  A    between atoms: _193  and  _195
REMARK   81  A    between atoms: _195  and  _196
REMARK   82  A    between atoms: _195  and  _198
REMARK   83  A    between atoms: _198  and  _199
REMARK   84  A    between atoms: _204  and  _206
REMARK   85  A    between atoms: _206  and  _207
REMARK   86  A    between atoms: _206  and  _209
REMARK   87  A    between atoms: _209  and  _210
REMARK   88  A    between atoms: _213  and  _215
REMARK   89  A    between atoms: _215  and  _216
REMARK   90  A    between atoms: _218  and  _220
REMARK   91  A    between atoms: _220  and  _221
REMARK   92  A    between atoms: _220  and  _223
REMARK   93  A    between atoms: _223  and  _224
REMARK   94  A    between atoms: _224  and  _225
REMARK   95  A    between atoms: _225  and  _226
REMARK   96  A    between atoms: _235  and  _237
REMARK   97  A    between atoms: _237  and  _238
REMARK   98  A    between atoms: _237  and  _240
REMARK   99  A    between atoms: _240  and  _241
REMARK  100  A    between atoms: _246  and  _248
REMARK  101  A    between atoms: _248  and  _249
REMARK  102  A    between atoms: _248  and  _251
REMARK  103  A    between atoms: _251  and  _252
REMARK  104  A    between atoms: _252  and  _253
REMARK  105  A    between atoms: _253  and  _254
REMARK  106  A    between atoms: _263  and  _265
REMARK  107  A    between atoms: _265  and  _266
REMARK  108  A    between atoms: _265  and  _268
REMARK  109  A    between atoms: _268  and  _269
REMARK  110  A    between atoms: _272  and  _274
REMARK  111  A    between atoms: _274  and  _275
REMARK  112  A    between atoms: _274  and  _277
REMARK  113  A    between atoms: _277  and  _278
REMARK  114  A    between atoms: _281  and  _283
REMARK  115  A    between atoms: _283  and  _284
REMARK  116  A    between atoms: _283  and  _286
REMARK  117  A    between atoms: _286  and  _287
REMARK  118  A    between atoms: _290  and  _292
REMARK  119  A    between atoms: _292  and  _293
REMARK  120  A    between atoms: _292  and  _295
REMARK  121  A    between atoms: _295  and  _296
REMARK  122  A    between atoms: _299  and  _301
REMARK  123  A    between atoms: _301  and  _302
REMARK  124  A    between atoms: _304  and  _306
REMARK  125  A    between atoms: _306  and  _307
REMARK  126  A    between atoms: _310  and  _312
REMARK  127  A    between atoms: _312  and  _313
REMARK  128  A    between atoms: _312  and  _315
REMARK  129  A    between atoms: _315  and  _316
REMARK  130  A    between atoms: _319  and  _321
REMARK  131  A    between atoms: _321  and  _322
REMARK  132  A    between atoms: _321  and  _324
REMARK  133  A    between atoms: _324  and  _325
REMARK  134  A    between atoms: _328  and  _330
REMARK  135  A    between atoms: _330  and  _331
REMARK  136  A    between atoms: _330  and  _333
REMARK  137  A    between atoms: _333  and  _334
REMARK  138  A    between atoms: _337  and  _339
REMARK  139  A    between atoms: _339  and  _340
REMARK  140  A    between atoms: _339  and  _342
REMARK  141  A    between atoms: _345  and  _347
REMARK  142  A    between atoms: _347  and  _348
REMARK  143  A    between atoms: _347  and  _350
REMARK  144  A    between atoms: _350  and  _351
REMARK  145  A    between atoms: _351  and  _352
REMARK  146  A    between atoms: _354  and  _356
REMARK  147  A    between atoms: _356  and  _357
REMARK  148  A    between atoms: _356  and  _359
REMARK  149  A    between atoms: _359  and  _360
REMARK  150  A    between atoms: _363  and  _365
REMARK  151  A    between atoms: _365  and  _366
REMARK  152  A    between atoms: _368  and  _370
REMARK  153  A    between atoms: _370  and  _371
REMARK  154  A    between atoms: _373  and  _375
REMARK  155  A    between atoms: _375  and  _376
REMARK  156  A    between atoms: _375  and  _378
REMARK  157  A    between atoms: _378  and  _379
REMARK  158  A    between atoms: _382  and  _384
REMARK  159  A    between atoms: _384  and  _385
REMARK  160  A    between atoms: _387  and  _389
REMARK  161  A    between atoms: _389  and  _390
REMARK  162  A    between atoms: _392  and  _394
REMARK  163  A    between atoms: _394  and  _395
REMARK  164  A    between atoms: _394  and  _397
REMARK  165  A    between atoms: _397  and  _398
REMARK  166  A    between atoms: _404  and  _406
REMARK  167  A    between atoms: _406  and  _407
REMARK  168  A    between atoms: _406  and  _409
REMARK  169  A    between atoms: _409  and  _410
REMARK  170  A    between atoms: _413  and  _415
REMARK  171  A    between atoms: _415  and  _416
REMARK  172  A    between atoms: _415  and  _418
REMARK  173  A    between atoms: _421  and  _423
REMARK  174  A    between atoms: _423  and  _424
REMARK  175  A    between atoms: _423  and  _426
REMARK  176  A    between atoms: _426  and  _427
REMARK  177  A    between atoms: _430  and  _432
REMARK  178  A    between atoms: _432  and  _433
REMARK  179  A    between atoms: _432  and  _435
REMARK  180  A    between atoms: _435  and  _436
REMARK  181  A    between atoms: _440  and  _441
REMARK  182  A    between atoms: _446  and  _448
REMARK  183  A    between atoms: _448  and  _449
REMARK  184  A    between atoms: _448  and  _451
REMARK  185  A    between atoms: _454  and  _456
REMARK  186  A    between atoms: _456  and  _457
REMARK  187  A    between atoms: _456  and  _459
REMARK  188  A    between atoms: _459  and  _460
REMARK  189  A    between atoms: _465  and  _467
REMARK  190  A    between atoms: _467  and  _468
REMARK  191  A    between atoms: _467  and  _470
REMARK  192  A    between atoms: _470  and  _471
REMARK  193  A    between atoms: _474  and  _476
REMARK  194  A    between atoms: _476  and  _477
REMARK  195  A    between atoms: _476  and  _479
REMARK  196  A    between atoms: _479  and  _480
REMARK  197  A    between atoms: _480  and  _481
REMARK  198  A    between atoms: _481  and  _482
REMARK                            x       y       z     vdW  Elec       q    Type
REMARK                         _______ _______ _______ _____ _____    ______ ____
ROOT
ATOM      1  CA  VAL A   3      -2.440  -7.017  18.624  0.00  0.00    +0.149 C 
ENDROOT
BRANCH   1   4
ATOM      2  C   PRO A   2      -1.790  -8.850  17.053  0.00  0.00    +0.241 C 
ATOM      3  O   PRO A   2      -2.404  -9.713  17.644  0.00  0.00    -0.273 OA
ATOM      4  N   VAL A   3      -1.736  -7.570  17.453  0.00  0.00    -0.297 N 
ATOM      5  H   VAL A   3      -1.152  -6.917  16.893  0.00  0.00    +0.150 HD
BRANCH   2   8
ATOM      6  C   THR A   1      -2.414  -7.963  14.181  0.00  0.00    +0.244 C 
ATOM      7  N   PRO A   2      -1.144  -8.155  14.681  0.00  0.00    -0.272 N 
ATOM      8  CA  PRO A   2      -0.988  -9.139  15.784  0.00  0.00    +0.152 C 
ATOM      9  CB  PRO A   2       0.521  -9.191  16.065  0.00  0.00    +0.031 C 
ATOM     10  CG  PRO A   2       1.178  -8.551  14.848  0.00  0.00    +0.024 C 
ATOM     11  CD  PRO A   2       0.139  -7.587  14.270  0.00  0.00    +0.094 C 
ATOM     12  O   THR A   1      -3.361  -8.591  14.627  0.00  0.00    -0.273 OA
BRANCH   6  13
ATOM     13  CA  THR A   1      -2.668  -6.967  13.039  0.00  0.00    +0.172 C 
BRANCH  13  14
ATOM     14  CB  THR A   1      -2.984  -5.585  13.630  0.00  0.00    +0.135 C 
ATOM     15  CG2 THR A   1      -4.388  -5.503  14.223  0.00  0.00    +0.034 C 
BRANCH  14  16
ATOM     16  OG1 THR A   1      -2.027  -5.241  14.620  0.00  0.00    -0.383 OA
ATOM     17  HG1 THR A   1      -2.047  -5.915  15.345  0.00  0.00    +0.210 HD
ENDBRANCH  14  16
ENDBRANCH  13  14
BRANCH  13  18
ATOM     18  N   THR A   1      -3.793  -7.352  12.147  0.00  0.00    -0.236 NA
ATOM     19  H   THR A   1      -4.769  -7.145  12.442  0.00  0.00    +0.142 HD
ENDBRANCH  13  18
ENDBRANCH   6  13
ENDBRANCH   2   8
ENDBRANCH   1   4
BRANCH   1  20
ATOM     20  C   VAL A   3      -3.373  -5.845  18.241  0.00  0.00    +0.241 C 
ATOM     21  N   ASN A   4      -4.242  -5.425  19.203  0.00  0.00    -0.297 N 
ATOM     22  H   ASN A   4      -4.489  -6.000  20.034  0.00  0.00    +0.150 HD
ATOM     23  O   VAL A   3      -3.254  -5.294  17.142  0.00  0.00    -0.273 OA
BRANCH  21  24
ATOM     24  CA  ASN A   4      -4.800  -4.081  18.959  0.00  0.00    +0.158 C 
BRANCH  24  25
ATOM     25  C   ASN A   4      -3.849  -2.918  19.265  0.00  0.00    +0.241 C 
ATOM     26  O   ASN A   4      -3.264  -2.850  20.340  0.00  0.00    -0.273 OA
ATOM     27  N   ILE A   5      -3.733  -2.018  18.281  0.00  0.00    -0.298 N 
ATOM     28  H   ILE A   5      -4.332  -2.151  17.442  0.00  0.00    +0.150 HD
BRANCH  27  29
ATOM     29  CA  ILE A   5      -2.820  -0.844  18.286  0.00  0.00    +0.137 C 
BRANCH  29  30
ATOM     30  CB  ILE A   5      -1.917  -0.949  17.005  0.00  0.00    +0.026 C 
ATOM     31  CG2 ILE A   5      -1.171   0.325  16.564  0.00  0.00    +0.002 C 
BRANCH  30  32
ATOM     32  CG1 ILE A   5      -0.878  -2.065  17.074  0.00  0.00    +0.002 C 
ATOM     33  CD1 ILE A   5      -0.214  -2.279  15.708  0.00  0.00    +0.000 C 
ENDBRANCH  30  32
ENDBRANCH  29  30
BRANCH  29  34
ATOM     34  C   ILE A   5      -3.530   0.548  18.348  0.00  0.00    +0.227 C 
ATOM     35  O   ILE A   5      -4.310   0.914  17.470  0.00  0.00    -0.286 OA
ENDBRANCH  29  34
ENDBRANCH  27  29
ENDBRANCH  24  25
BRANCH  24  36
ATOM     36  CB  ASN A   4      -6.103  -3.838  19.728  0.00  0.00    +0.114 C 
BRANCH  36  37
ATOM     37  CG  ASN A   4      -7.265  -4.688  19.236  0.00  0.00    +0.222 C 
ATOM     38  ND2 ASN A   4      -7.765  -5.557  20.102  0.00  0.00    -0.329 N 
ATOM     39 HD21 ASN A   4      -7.341  -5.653  21.047  0.00  0.00    +0.145 HD
ATOM     40 HD22 ASN A   4      -8.582  -6.144  19.837  0.00  0.00    +0.145 HD
ATOM     41  OD1 ASN A   4      -7.744  -4.560  18.129  0.00  0.00    -0.275 OA
ENDBRANCH  36  37
ENDBRANCH  24  36
ENDBRANCH  21  24
ENDBRANCH   1  20
BRANCH   1  42
ATOM     42  CB  VAL A   3      -1.397  -6.519  19.651  0.00  0.00    +0.027 C 
ATOM     43  CG2 VAL A   3      -0.766  -7.679  20.370  0.00  0.00    +0.002 C 
ATOM     44  CG1 VAL A   3      -0.333  -5.607  19.030  0.00  0.00    +0.002 C 
ENDBRANCH   1  42
TORSDOF 16
REMARK  Name = ../refined-set-2016/3aid/3aid_pocket.pdb
REMARK  198 active torsions:
REMARK  status: ('A' for Active; 'I' for Inactive)
REMARK    1  A    between atoms: _1  and  _3
REMARK    2  A    between atoms: _3  and  _4
REMARK    3  A    between atoms: _3  and  _6
REMARK    4  A    between atoms: _6  and  _7
REMARK    5  A    between atoms: _7  and  _8
REMARK    6  A    between atoms: _8  and  _9
REMARK    7  A    between atoms: _18  and  _20
REMARK    8  A    between atoms: _20  and  _21
REMARK    9  A    between atoms: _20  and  _23
REMARK   10  A    between atoms: _23  and  _24
REMARK   11  A    between atoms: _27  and  _29
REMARK   12  A    between atoms: _29  and  _30
REMARK   13  A    between atoms: _29  and  _32
REMARK   14  A    between atoms: _32  and  _33
REMARK   15  A    between atoms: _36  and  _38
REMARK   16  A    between atoms: _38  and  _39
REMARK   17  A    between atoms: _38  and  _41
REMARK   18  A    between atoms: _41  and  _42
REMARK   19  A    between atoms: _45  and  _47
REMARK   20  A    between atoms: _47  and  _48
REMARK   21  A    between atoms: _47  and  _50
REMARK   22  A    between atoms: _50  and  _51
REMARK   23  A    between atoms: _54  and  _56
REMARK   24  A    between atoms: _56  and  _57
REMARK   25  A    between atoms: _59  and  _61
REMARK   26  A    between atoms: _61  and  _62
REMARK   27  A    between atoms: _65  and  _67
REMARK   28  A    between atoms: _67  and  _68
REMARK   29  A    between atoms: _67  and  _70
REMARK   30  A    between atoms: _70  and  _71
REMARK   31  A    between atoms: _74  and  _76
REMARK   32  A    between atoms: _76  and  _77
REMARK   33  A    between atoms: _76  and  _79
REMARK   34  A    between atoms: _79  and  _80
REMARK   35  A    between atoms: _83  and  _85
REMARK   36  A    between atoms: _85  and  _86
REMARK   37  A    between atoms: _85  and  _88
REMARK   38  A    between atoms: _88  and  _89
REMARK   39  A    between atoms: _92  and  _94
REMARK   40  A    between atoms: _94  and  _95
REMARK   41  A    between atoms: _94  and  _97
REMARK   42  A    between atoms: _100  and  _102
REMARK   43  A    between atoms: _102  and  _103
REMARK   44  A    between atoms: _102  and  _105
REMARK   45  A    between atoms: _105  and  _106
REMARK   46  A    between atoms: _106  and  _107
REMARK   47  A    between atoms: _107  and  _108
REMARK   48  A    between atoms: _108  and  _109
REMARK   49  A    between atoms: _113  and  _115
REMARK   50  A    between atoms: _115  and  _116
REMARK   51  A    between atoms: _115  and  _118
REMARK   52  A    between atoms: _118  and  _119
REMARK   53  A    between atoms: _122  and  _124
REMARK   54  A    between atoms: _124  and  _125
REMARK   55  A    between atoms: _127  and  _129
REMARK   56  A    between atoms: _129  and  _130
REMARK   57  A    between atoms: _134  and  _135
REMARK   58  A    between atoms: _134  and  _137
REMARK   59  A    between atoms: _137  and  _138
REMARK   60  A    between atoms: _141  and  _143
REMARK   61  A    between atoms: _143  and  _144
REMARK   62  A    between atoms: _146  and  _148
REMARK   63  A    between atoms: _148  and  _149
REMARK   64  A    between atoms: _151  and  _153
REMARK   65  A    between atoms: _153  and  _154
REMARK   66  A    between atoms: _153  and  _156
REMARK   67  A    between atoms: _156  and  _157
REMARK   68  A    between atoms: _160  and  _162
REMARK   69  A    between atoms: _162  and  _163
REMARK   70  A    between atoms: _162  and  _165
REMARK   71  A    between atoms: _165  and  _166
REMARK   72  A    between atoms: _169  and  _171
REMARK   73  A    between atoms: _171  and  _172
REMARK   74  A    between atoms: _171  and  _174
REMARK   75  A    between atoms: _174  and  _175
REMARK   76  A    between atoms: _179  and  _180
REMARK   77  A    between atoms: _185  and  _187
REMARK   78  A    between atoms: _187  and  _188
REMARK   79  A    between atoms: _187  and  _190
REMARK   80  A    between atoms: _193  and  _195
REMARK   81  A    between atoms: _195  and  _196
REMARK   82  A    between atoms: _195  and  _198
REMARK   83  A    between atoms: _198  and  _199
REMARK   84  A    between atoms: _204  and  _206
REMARK   85  A    between atoms: _206  and  _207
REMARK   86  A    between atoms: _206  and  _209
REMARK   87  A    between atoms: _209  and  _210
REMARK   88  A    between atoms: _213  and  _215
REMARK   89  A    between atoms: _215  and  _216
REMARK   90  A    between atoms: _218  and  _220
REMARK   91  A    between atoms: _220  and  _221
REMARK   92  A    between atoms: _220  and  _223
REMARK   93  A    between atoms: _223  and  _224
REMARK   94  A    between atoms: _224  and  _225
REMARK   95  A    between atoms: _225  and  _226
REMARK   96  A    between atoms: _235  and  _237
REMARK   97  A    between atoms: _237  and  _238
REMARK   98  A    between atoms: _237  and  _240
REMARK   99  A    between atoms: _240  and  _241
REMARK  100  A    between atoms: _246  and  _248
REMARK  101  A    between atoms: _248  and  _249
REMARK  102  A    between atoms: _248  and  _251
REMARK  103  A    between atoms: _251  and  _252
REMARK  104  A    between atoms: _252  and  _253
REMARK  105  A    between atoms: _253  and  _254
REMARK  106  A    between atoms: _263  and  _265
REMARK  107  A    between atoms: _265  and  _266
REMARK  108  A    between atoms: _265  and  _268
REMARK  109  A    between atoms: _268  and  _269
REMARK  110  A    between atoms: _272  and  _274
REMARK  111  A    between atoms: _274  and  _275
REMARK  112  A    between atoms: _274  and  _277
REMARK  113  A    between atoms: _277  and  _278
REMARK  114  A    between atoms: _281  and  _283
REMARK  115  A    between atoms: _283  and  _284
REMARK  116  A    between atoms: _283  and  _286
REMARK  117  A    between atoms: _286  and  _287
REMARK  118  A    between atoms: _290  and  _292
REMARK  119  A    between atoms: _292  and  _293
REMARK  120  A    between atoms: _292  and  _295
REMARK  121  A    between atoms: _295  and  _296
REMARK  122  A    between atoms: _299  and  _301
REMARK  123  A    between atoms: _301  and  _302
REMARK  124  A    between atoms: _304  and  _306
REMARK  125  A    between atoms: _306  and  _307
REMARK  126  A    between atoms: _310  and  _312
REMARK  127  A    between atoms: _312  and  _313
REMARK  128  A    between atoms: _312  and  _315
REMARK  129  A    between atoms: _315  and  _316
REMARK  130  A    between atoms: _319  and  _321
REMARK  131  A    between atoms: _321  and  _322
REMARK  132  A    between atoms: _321  and  _324
REMARK  133  A    between atoms: _324  and  _325
REMARK  134  A    between atoms: _328  and  _330
REMARK  135  A    between atoms: _330  and  _331
REMARK  136  A    between atoms: _330  and  _333
REMARK  137  A    between atoms: _333  and  _334
REMARK  138  A    between atoms: _337  and  _339
REMARK  139  A    between atoms: _339  and  _340
REMARK  140  A    between atoms: _339  and  _342
REMARK  141  A    between atoms: _345  and  _347
REMARK  142  A    between atoms: _347  and  _348
REMARK  143  A    between atoms: _347  and  _350
REMARK  144  A    between atoms: _350  and  _351
REMARK  145  A    between atoms: _351  and  _352
REMARK  146  A    between atoms: _354  and  _356
REMARK  147  A    between atoms: _356  and  _357
REMARK  148  A    between atoms: _356  and  _359
REMARK  149  A    between atoms: _359  and  _360
REMARK  150  A    between atoms: _363  and  _365
REMARK  151  A    between atoms: _365  and  _366
REMARK  152  A    between atoms: _368  and  _370
REMARK  153  A    between atoms: _370  and  _371
REMARK  154  A    between atoms: _373  and  _375
REMARK  155  A    between atoms: _375  and  _376
REMARK  156  A    between atoms: _375  and  _378
REMARK  157  A    between atoms: _378  and  _379
REMARK  158  A    between atoms: _382  and  _384
REMARK  159  A    between atoms: _384  and  _385
REMARK  160  A    between atoms: _387  and  _389
REMARK  161  A    between atoms: _389  and  _390
REMARK  162  A    between atoms: _392  and  _394
REMARK  163  A    between atoms: _394  and  _395
REMARK  164  A    between atoms: _394  and  _397
REMARK  165  A    between atoms: _397  and  _398
REMARK  166  A    between atoms: _404  and  _406
REMARK  167  A    between atoms: _406  and  _407
REMARK  168  A    between atoms: _406  and  _409
REMARK  169  A    between atoms: _409  and  _410
REMARK  170  A    between atoms: _413  and  _415
REMARK  171  A    between atoms: _415  and  _416
REMARK  172  A    between atoms: _415  and  _418
REMARK  173  A    between atoms: _421  and  _423
REMARK  174  A    between atoms: _423  and  _424
REMARK  175  A    between atoms: _423  and  _426
REMARK  176  A    between atoms: _426  and  _427
REMARK  177  A    between atoms: _430  and  _432
REMARK  178  A    between atoms: _432  and  _433
REMARK  179  A    between atoms: _432  and  _435
REMARK  180  A    between atoms: _435  and  _436
REMARK  181  A    between atoms: _440  and  _441
REMARK  182  A    between atoms: _446  and  _448
REMARK  183  A    between atoms: _448  and  _449
REMARK  184  A    between atoms: _448  and  _451
REMARK  185  A    between atoms: _454  and  _456
REMARK  186  A    between atoms: _456  and  _457
REMARK  187  A    between atoms: _456  and  _459
REMARK  188  A    between atoms: _459  and  _460
REMARK  189  A    between atoms: _465  and  _467
REMARK  190  A    between atoms: _467  and  _468
REMARK  191  A    between atoms: _467  and  _470
REMARK  192  A    between atoms: _470  and  _471
REMARK  193  A    between atoms: _474  and  _476
REMARK  194  A    between atoms: _476  and  _477
REMARK  195  A    between atoms: _476  and  _479
REMARK  196  A    between atoms: _479  and  _480
REMARK  197  A    between atoms: _480  and  _481
REMARK  198  A    between atoms: _481  and  _482
REMARK                            x       y       z     vdW  Elec       q    Type
REMARK                         _______ _______ _______ _____ _____    ______ ____
ROOT
ATOM      1  CA  ARG A   2      -0.654   8.875  17.437  0.00  0.00    +0.149 C 
ENDROOT
BRANCH   1   4
ATOM      2  C   GLY A   1      -1.513   6.620  17.583  0.00  0.00    +0.240 C 
ATOM      3  O   GLY A   1      -2.415   7.044  18.307  0.00  0.00    -0.274 OA
ATOM      4  N   ARG A   2      -0.582   7.434  17.053  0.00  0.00    -0.297 N 
ATOM      5  H   ARG A   2       0.151   7.077  16.408  0.00  0.00    +0.150 HD
BRANCH   2   6
ATOM      6  CA  GLY A   1      -1.444   5.149  17.231  0.00  0.00    +0.169 C 
BRANCH   6   7
ATOM      7  N   GLY A   1      -2.519   4.356  17.827  0.00  0.00    -0.236 NA
ATOM      8  H   GLY A   1      -3.448   4.338  17.360  0.00  0.00    +0.142 HD
ENDBRANCH   6   7
ENDBRANCH   2   6
ENDBRANCH   1   4
BRANCH   1   9
ATOM      9  C   ARG A   2      -1.987   9.709  17.268  0.00  0.00    +0.241 C 
ATOM     10  O   ARG A   2      -2.248  10.670  17.993  0.00  0.00    -0.273 OA
ATOM     11  N   ASN A   3      -2.846   9.320  16.284  0.00  0.00    -0.298 N 
ATOM     12  H   ASN A   3      -2.621   8.468  15.731  0.00  0.00    +0.150 HD
BRANCH  11  13
ATOM     13  CA  ASN A   3      -4.085  10.064  15.974  0.00  0.00    +0.146 C 
BRANCH  13  14
ATOM     14  C   ASN A   3      -5.100  10.221  17.134  0.00  0.00    +0.227 C 
ATOM     15  O   ASN A   3      -5.814  11.204  17.328  0.00  0.00    -0.286 OA
ENDBRANCH  13  14
BRANCH  13  16
ATOM     16  CB  ASN A   3      -4.734   9.451  14.714  0.00  0.00    +0.112 C 
BRANCH  16  17
ATOM     17  CG  ASN A   3      -5.452   8.096  14.938  0.00  0.00    +0.222 C 
ATOM     18  OD1 ASN A   3      -4.939   7.098  15.437  0.00  0.00    -0.275 OA
ATOM     19  ND2 ASN A   3      -6.728   8.083  14.558  0.00  0.00    -0.329 N 
ATOM     20 HD21 ASN A   3      -7.299   7.223  14.683  0.00  0.00    +0.145 HD
ATOM     21 HD22 ASN A   3      -7.154   8.933  14.136  0.00  0.00    +0.145 HD
ENDBRANCH  16  17
ENDBRANCH  13  16
ENDBRANCH  11  13
ENDBRANCH   1   9
BRANCH   1  22
ATOM     22  CB  ARG A   2       0.560   9.612  16.845  0.00  0.00    +0.033 C 
BRANCH  22  23
ATOM     23  CG  ARG A   2       1.904   9.047  17.362  0.00  0.00    +0.045 C 
BRANCH  23  24
ATOM     24  CD  ARG A   2       3.062   9.100  16.353  0.00  0.00    +0.174 C 
BRANCH  24  25
ATOM     25  NE  ARG A   2       3.209  10.479  15.997  0.00  0.00    -0.265 N 
ATOM     26  HE  ARG A   2       3.632  11.158  16.662  0.00  0.00    +0.259 HD
ATOM     27  CZ  ARG A   2       2.792  10.872  14.795  0.00  0.00    +0.342 C 
ATOM     28  NH2 ARG A   2       2.170  12.049  14.692  0.00  0.00    -0.292 N 
ATOM     29 HH21 ARG A   2       2.022  12.635  15.539  0.00  0.00    +0.255 HD
ATOM     30 HH22 ARG A   2       1.834  12.380  13.765  0.00  0.00    +0.255 HD
ATOM     31  NH1 ARG A   2       2.967  10.101  13.735  0.00  0.00    -0.292 N 
ATOM     32 HH11 ARG A   2       3.434   9.177  13.835  0.00  0.00    +0.255 HD
ATOM     33 HH12 ARG A   2       2.637  10.418  12.801  0.00  0.00    +0.255 HD
ENDBRANCH  24  25
ENDBRANCH  23  24
ENDBRANCH  22  23
ENDBRANCH   1  22
TORSDOF 12
REMARK  Name = ../refined-set-2016/3aid/3aid_pocket.pdb
REMARK  198 active torsions:
REMARK  status: ('A' for Active; 'I' for Inactive)
REMARK    1  A    between atoms: _1  and  _3
REMARK    2  A    between atoms: _3  and  _4
REMARK    3  A    between atoms: _3  and  _6
REMARK    4  A    between atoms: _6  and  _7
REMARK    5  A    between atoms: _7  and  _8
REMARK    6  A    between atoms: _8  and  _9
REMARK    7  A    between atoms: _18  and  _20
REMARK    8  A    between atoms: _20  and  _21
REMARK    9  A    between atoms: _20  and  _23
REMARK   10  A    between atoms: _23  and  _24
REMARK   11  A    between atoms: _27  and  _29
REMARK   12  A    between atoms: _29  and  _30
REMARK   13  A    between atoms: _29  and  _32
REMARK   14  A    between atoms: _32  and  _33
REMARK   15  A    between atoms: _36  and  _38
REMARK   16  A    between atoms: _38  and  _39
REMARK   17  A    between atoms: _38  and  _41
REMARK   18  A    between atoms: _41  and  _42
REMARK   19  A    between atoms: _45  and  _47
REMARK   20  A    between atoms: _47  and  _48
REMARK   21  A    between atoms: _47  and  _50
REMARK   22  A    between atoms: _50  and  _51
REMARK   23  A    between atoms: _54  and  _56
REMARK   24  A    between atoms: _56  and  _57
REMARK   25  A    between atoms: _59  and  _61
REMARK   26  A    between atoms: _61  and  _62
REMARK   27  A    between atoms: _65  and  _67
REMARK   28  A    between atoms: _67  and  _68
REMARK   29  A    between atoms: _67  and  _70
REMARK   30  A    between atoms: _70  and  _71
REMARK   31  A    between atoms: _74  and  _76
REMARK   32  A    between atoms: _76  and  _77
REMARK   33  A    between atoms: _76  and  _79
REMARK   34  A    between atoms: _79  and  _80
REMARK   35  A    between atoms: _83  and  _85
REMARK   36  A    between atoms: _85  and  _86
REMARK   37  A    between atoms: _85  and  _88
REMARK   38  A    between atoms: _88  and  _89
REMARK   39  A    between atoms: _92  and  _94
REMARK   40  A    between atoms: _94  and  _95
REMARK   41  A    between atoms: _94  and  _97
REMARK   42  A    between atoms: _100  and  _102
REMARK   43  A    between atoms: _102  and  _103
REMARK   44  A    between atoms: _102  and  _105
REMARK   45  A    between atoms: _105  and  _106
REMARK   46  A    between atoms: _106  and  _107
REMARK   47  A    between atoms: _107  and  _108
REMARK   48  A    between atoms: _108  and  _109
REMARK   49  A    between atoms: _113  and  _115
REMARK   50  A    between atoms: _115  and  _116
REMARK   51  A    between atoms: _115  and  _118
REMARK   52  A    between atoms: _118  and  _119
REMARK   53  A    between atoms: _122  and  _124
REMARK   54  A    between atoms: _124  and  _125
REMARK   55  A    between atoms: _127  and  _129
REMARK   56  A    between atoms: _129  and  _130
REMARK   57  A    between atoms: _134  and  _135
REMARK   58  A    between atoms: _134  and  _137
REMARK   59  A    between atoms: _137  and  _138
REMARK   60  A    between atoms: _141  and  _143
REMARK   61  A    between atoms: _143  and  _144
REMARK   62  A    between atoms: _146  and  _148
REMARK   63  A    between atoms: _148  and  _149
REMARK   64  A    between atoms: _151  and  _153
REMARK   65  A    between atoms: _153  and  _154
REMARK   66  A    between atoms: _153  and  _156
REMARK   67  A    between atoms: _156  and  _157
REMARK   68  A    between atoms: _160  and  _162
REMARK   69  A    between atoms: _162  and  _163
REMARK   70  A    between atoms: _162  and  _165
REMARK   71  A    between atoms: _165  and  _166
REMARK   72  A    between atoms: _169  and  _171
REMARK   73  A    between atoms: _171  and  _172
REMARK   74  A    between atoms: _171  and  _174
REMARK   75  A    between atoms: _174  and  _175
REMARK   76  A    between atoms: _179  and  _180
REMARK   77  A    between atoms: _185  and  _187
REMARK   78  A    between atoms: _187  and  _188
REMARK   79  A    between atoms: _187  and  _190
REMARK   80  A    between atoms: _193  and  _195
REMARK   81  A    between atoms: _195  and  _196
REMARK   82  A    between atoms: _195  and  _198
REMARK   83  A    between atoms: _198  and  _199
REMARK   84  A    between atoms: _204  and  _206
REMARK   85  A    between atoms: _206  and  _207
REMARK   86  A    between atoms: _206  and  _209
REMARK   87  A    between atoms: _209  and  _210
REMARK   88  A    between atoms: _213  and  _215
REMARK   89  A    between atoms: _215  and  _216
REMARK   90  A    between atoms: _218  and  _220
REMARK   91  A    between atoms: _220  and  _221
REMARK   92  A    between atoms: _220  and  _223
REMARK   93  A    between atoms: _223  and  _224
REMARK   94  A    between atoms: _224  and  _225
REMARK   95  A    between atoms: _225  and  _226
REMARK   96  A    between atoms: _235  and  _237
REMARK   97  A    between atoms: _237  and  _238
REMARK   98  A    between atoms: _237  and  _240
REMARK   99  A    between atoms: _240  and  _241
REMARK  100  A    between atoms: _246  and  _248
REMARK  101  A    between atoms: _248  and  _249
REMARK  102  A    between atoms: _248  and  _251
REMARK  103  A    between atoms: _251  and  _252
REMARK  104  A    between atoms: _252  and  _253
REMARK  105  A    between atoms: _253  and  _254
REMARK  106  A    between atoms: _263  and  _265
REMARK  107  A    between atoms: _265  and  _266
REMARK  108  A    between atoms: _265  and  _268
REMARK  109  A    between atoms: _268  and  _269
REMARK  110  A    between atoms: _272  and  _274
REMARK  111  A    between atoms: _274  and  _275
REMARK  112  A    between atoms: _274  and  _277
REMARK  113  A    between atoms: _277  and  _278
REMARK  114  A    between atoms: _281  and  _283
REMARK  115  A    between atoms: _283  and  _284
REMARK  116  A    between atoms: _283  and  _286
REMARK  117  A    between atoms: _286  and  _287
REMARK  118  A    between atoms: _290  and  _292
REMARK  119  A    between atoms: _292  and  _293
REMARK  120  A    between atoms: _292  and  _295
REMARK  121  A    between atoms: _295  and  _296
REMARK  122  A    between atoms: _299  and  _301
REMARK  123  A    between atoms: _301  and  _302
REMARK  124  A    between atoms: _304  and  _306
REMARK  125  A    between atoms: _306  and  _307
REMARK  126  A    between atoms: _310  and  _312
REMARK  127  A    between atoms: _312  and  _313
REMARK  128  A    between atoms: _312  and  _315
REMARK  129  A    between atoms: _315  and  _316
REMARK  130  A    between atoms: _319  and  _321
REMARK  131  A    between atoms: _321  and  _322
REMARK  132  A    between atoms: _321  and  _324
REMARK  133  A    between atoms: _324  and  _325
REMARK  134  A    between atoms: _328  and  _330
REMARK  135  A    between atoms: _330  and  _331
REMARK  136  A    between atoms: _330  and  _333
REMARK  137  A    between atoms: _333  and  _334
REMARK  138  A    between atoms: _337  and  _339
REMARK  139  A    between atoms: _339  and  _340
REMARK  140  A    between atoms: _339  and  _342
REMARK  141  A    between atoms: _345  and  _347
REMARK  142  A    between atoms: _347  and  _348
REMARK  143  A    between atoms: _347  and  _350
REMARK  144  A    between atoms: _350  and  _351
REMARK  145  A    between atoms: _351  and  _352
REMARK  146  A    between atoms: _354  and  _356
REMARK  147  A    between atoms: _356  and  _357
REMARK  148  A    between atoms: _356  and  _359
REMARK  149  A    between atoms: _359  and  _360
REMARK  150  A    between atoms: _363  and  _365
REMARK  151  A    between atoms: _365  and  _366
REMARK  152  A    between atoms: _368  and  _370
REMARK  153  A    between atoms: _370  and  _371
REMARK  154  A    between atoms: _373  and  _375
REMARK  155  A    between atoms: _375  and  _376
REMARK  156  A    between atoms: _375  and  _378
REMARK  157  A    between atoms: _378  and  _379
REMARK  158  A    between atoms: _382  and  _384
REMARK  159  A    between atoms: _384  and  _385
REMARK  160  A    between atoms: _387  and  _389
REMARK  161  A    between atoms: _389  and  _390
REMARK  162  A    between atoms: _392  and  _394
REMARK  163  A    between atoms: _394  and  _395
REMARK  164  A    between atoms: _394  and  _397
REMARK  165  A    between atoms: _397  and  _398
REMARK  166  A    between atoms: _404  and  _406
REMARK  167  A    between atoms: _406  and  _407
REMARK  168  A    between atoms: _406  and  _409
REMARK  169  A    between atoms: _409  and  _410
REMARK  170  A    between atoms: _413  and  _415
REMARK  171  A    between atoms: _415  and  _416
REMARK  172  A    between atoms: _415  and  _418
REMARK  173  A    between atoms: _421  and  _423
REMARK  174  A    between atoms: _423  and  _424
REMARK  175  A    between atoms: _423  and  _426
REMARK  176  A    between atoms: _426  and  _427
REMARK  177  A    between atoms: _430  and  _432
REMARK  178  A    between atoms: _432  and  _433
REMARK  179  A    between atoms: _432  and  _435
REMARK  180  A    between atoms: _435  and  _436
REMARK  181  A    between atoms: _440  and  _441
REMARK  182  A    between atoms: _446  and  _448
REMARK  183  A    between atoms: _448  and  _449
REMARK  184  A    between atoms: _448  and  _451
REMARK  185  A    between atoms: _454  and  _456
REMARK  186  A    between atoms: _456  and  _457
REMARK  187  A    between atoms: _456  and  _459
REMARK  188  A    between atoms: _459  and  _460
REMARK  189  A    between atoms: _465  and  _467
REMARK  190  A    between atoms: _467  and  _468
REMARK  191  A    between atoms: _467  and  _470
REMARK  192  A    between atoms: _470  and  _471
REMARK  193  A    between atoms: _474  and  _476
REMARK  194  A    between atoms: _476  and  _477
REMARK  195  A    between atoms: _476  and  _479
REMARK  196  A    between atoms: _479  and  _480
REMARK  197  A    between atoms: _480  and  _481
REMARK  198  A    between atoms: _481  and  _482
REMARK                            x       y       z     vdW  Elec       q    Type
REMARK                         _______ _______ _______ _____ _____    ______ ____
ROOT
ATOM      1  NE  ARG A   1       6.209   8.432  10.750  0.00  0.00    -0.265 N 
ATOM      2  HE  ARG A   1       5.198   8.457  10.994  0.00  0.00    +0.259 HD
ATOM      3  CZ  ARG A   1       6.611   7.669   9.688  0.00  0.00    +0.342 C 
ATOM      4  NH2 ARG A   1       7.894   7.559   9.332  0.00  0.00    -0.292 N 
ATOM      5 HH21 ARG A   1       8.628   8.064   9.869  0.00  0.00    +0.255 HD
ATOM      6 HH22 ARG A   1       8.159   6.969   8.518  0.00  0.00    +0.255 HD
ATOM      7  NH1 ARG A   1       5.699   7.025   8.965  0.00  0.00    -0.292 N 
ATOM      8 HH11 ARG A   1       4.691   7.104   9.209  0.00  0.00    +0.255 HD
ATOM      9 HH12 ARG A   1       5.994   6.442   8.156  0.00  0.00    +0.255 HD
ENDROOT
BRANCH   1  10
ATOM     10  CD  ARG A   1       7.149   9.217  11.559  0.00  0.00    +0.174 C 
BRANCH  10  11
ATOM     11  CG  ARG A   1       6.440   9.877  12.721  0.00  0.00    +0.045 C 
BRANCH  11  12
ATOM     12  CB  ARG A   1       7.392  10.626  13.672  0.00  0.00    +0.029 C 
BRANCH  12  13
ATOM     13  CA  ARG A   1       6.757  11.289  14.910  0.00  0.00    +0.133 C 
BRANCH  13  14
ATOM     14  N   ARG A   1       5.941  12.438  14.502  0.00  0.00    -0.239 NA
ATOM     15  H   ARG A   1       5.886  12.715  13.501  0.00  0.00    +0.142 HD
ENDBRANCH  13  14
BRANCH  13  16
ATOM     16  C   ARG A   1       7.864  11.650  15.893  0.00  0.00    +0.224 C 
ATOM     17  O   ARG A   1       8.538  12.670  15.755  0.00  0.00    -0.287 OA
ENDBRANCH  13  16
ENDBRANCH  12  13
ENDBRANCH  11  12
ENDBRANCH  10  11
ENDBRANCH   1  10
TORSDOF 6
REMARK  Name = ../refined-set-2016/3aid/3aid_pocket.pdb
REMARK  198 active torsions:
REMARK  status: ('A' for Active; 'I' for Inactive)
REMARK    1  A    between atoms: _1  and  _3
REMARK    2  A    between atoms: _3  and  _4
REMARK    3  A    between atoms: _3  and  _6
REMARK    4  A    between atoms: _6  and  _7
REMARK    5  A    between atoms: _7  and  _8
REMARK    6  A    between atoms: _8  and  _9
REMARK    7  A    between atoms: _18  and  _20
REMARK    8  A    between atoms: _20  and  _21
REMARK    9  A    between atoms: _20  and  _23
REMARK   10  A    between atoms: _23  and  _24
REMARK   11  A    between atoms: _27  and  _29
REMARK   12  A    between atoms: _29  and  _30
REMARK   13  A    between atoms: _29  and  _32
REMARK   14  A    between atoms: _32  and  _33
REMARK   15  A    between atoms: _36  and  _38
REMARK   16  A    between atoms: _38  and  _39
REMARK   17  A    between atoms: _38  and  _41
REMARK   18  A    between atoms: _41  and  _42
REMARK   19  A    between atoms: _45  and  _47
REMARK   20  A    between atoms: _47  and  _48
REMARK   21  A    between atoms: _47  and  _50
REMARK   22  A    between atoms: _50  and  _51
REMARK   23  A    between atoms: _54  and  _56
REMARK   24  A    between atoms: _56  and  _57
REMARK   25  A    between atoms: _59  and  _61
REMARK   26  A    between atoms: _61  and  _62
REMARK   27  A    between atoms: _65  and  _67
REMARK   28  A    between atoms: _67  and  _68
REMARK   29  A    between atoms: _67  and  _70
REMARK   30  A    between atoms: _70  and  _71
REMARK   31  A    between atoms: _74  and  _76
REMARK   32  A    between atoms: _76  and  _77
REMARK   33  A    between atoms: _76  and  _79
REMARK   34  A    between atoms: _79  and  _80
REMARK   35  A    between atoms: _83  and  _85
REMARK   36  A    between atoms: _85  and  _86
REMARK   37  A    between atoms: _85  and  _88
REMARK   38  A    between atoms: _88  and  _89
REMARK   39  A    between atoms: _92  and  _94
REMARK   40  A    between atoms: _94  and  _95
REMARK   41  A    between atoms: _94  and  _97
REMARK   42  A    between atoms: _100  and  _102
REMARK   43  A    between atoms: _102  and  _103
REMARK   44  A    between atoms: _102  and  _105
REMARK   45  A    between atoms: _105  and  _106
REMARK   46  A    between atoms: _106  and  _107
REMARK   47  A    between atoms: _107  and  _108
REMARK   48  A    between atoms: _108  and  _109
REMARK   49  A    between atoms: _113  and  _115
REMARK   50  A    between atoms: _115  and  _116
REMARK   51  A    between atoms: _115  and  _118
REMARK   52  A    between atoms: _118  and  _119
REMARK   53  A    between atoms: _122  and  _124
REMARK   54  A    between atoms: _124  and  _125
REMARK   55  A    between atoms: _127  and  _129
REMARK   56  A    between atoms: _129  and  _130
REMARK   57  A    between atoms: _134  and  _135
REMARK   58  A    between atoms: _134  and  _137
REMARK   59  A    between atoms: _137  and  _138
REMARK   60  A    between atoms: _141  and  _143
REMARK   61  A    between atoms: _143  and  _144
REMARK   62  A    between atoms: _146  and  _148
REMARK   63  A    between atoms: _148  and  _149
REMARK   64  A    between atoms: _151  and  _153
REMARK   65  A    between atoms: _153  and  _154
REMARK   66  A    between atoms: _153  and  _156
REMARK   67  A    between atoms: _156  and  _157
REMARK   68  A    between atoms: _160  and  _162
REMARK   69  A    between atoms: _162  and  _163
REMARK   70  A    between atoms: _162  and  _165
REMARK   71  A    between atoms: _165  and  _166
REMARK   72  A    between atoms: _169  and  _171
REMARK   73  A    between atoms: _171  and  _172
REMARK   74  A    between atoms: _171  and  _174
REMARK   75  A    between atoms: _174  and  _175
REMARK   76  A    between atoms: _179  and  _180
REMARK   77  A    between atoms: _185  and  _187
REMARK   78  A    between atoms: _187  and  _188
REMARK   79  A    between atoms: _187  and  _190
REMARK   80  A    between atoms: _193  and  _195
REMARK   81  A    between atoms: _195  and  _196
REMARK   82  A    between atoms: _195  and  _198
REMARK   83  A    between atoms: _198  and  _199
REMARK   84  A    between atoms: _204  and  _206
REMARK   85  A    between atoms: _206  and  _207
REMARK   86  A    between atoms: _206  and  _209
REMARK   87  A    between atoms: _209  and  _210
REMARK   88  A    between atoms: _213  and  _215
REMARK   89  A    between atoms: _215  and  _216
REMARK   90  A    between atoms: _218  and  _220
REMARK   91  A    between atoms: _220  and  _221
REMARK   92  A    between atoms: _220  and  _223
REMARK   93  A    between atoms: _223  and  _224
REMARK   94  A    between atoms: _224  and  _225
REMARK   95  A    between atoms: _225  and  _226
REMARK   96  A    between atoms: _235  and  _237
REMARK   97  A    between atoms: _237  and  _238
REMARK   98  A    between atoms: _237  and  _240
REMARK   99  A    between atoms: _240  and  _241
REMARK  100  A    between atoms: _246  and  _248
REMARK  101  A    between atoms: _248  and  _249
REMARK  102  A    between atoms: _248  and  _251
REMARK  103  A    between atoms: _251  and  _252
REMARK  104  A    between atoms: _252  and  _253
REMARK  105  A    between atoms: _253  and  _254
REMARK  106  A    between atoms: _263  and  _265
REMARK  107  A    between atoms: _265  and  _266
REMARK  108  A    between atoms: _265  and  _268
REMARK  109  A    between atoms: _268  and  _269
REMARK  110  A    between atoms: _272  and  _274
REMARK  111  A    between atoms: _274  and  _275
REMARK  112  A    between atoms: _274  and  _277
REMARK  113  A    between atoms: _277  and  _278
REMARK  114  A    between atoms: _281  and  _283
REMARK  115  A    between atoms: _283  and  _284
REMARK  116  A    between atoms: _283  and  _286
REMARK  117  A    between atoms: _286  and  _287
REMARK  118  A    between atoms: _290  and  _292
REMARK  119  A    between atoms: _292  and  _293
REMARK  120  A    between atoms: _292  and  _295
REMARK  121  A    between atoms: _295  and  _296
REMARK  122  A    between atoms: _299  and  _301
REMARK  123  A    between atoms: _301  and  _302
REMARK  124  A    between atoms: _304  and  _306
REMARK  125  A    between atoms: _306  and  _307
REMARK  126  A    between atoms: _310  and  _312
REMARK  127  A    between atoms: _312  and  _313
REMARK  128  A    between atoms: _312  and  _315
REMARK  129  A    between atoms: _315  and  _316
REMARK  130  A    between atoms: _319  and  _321
REMARK  131  A    between atoms: _321  and  _322
REMARK  132  A    between atoms: _321  and  _324
REMARK  133  A    between atoms: _324  and  _325
REMARK  134  A    between atoms: _328  and  _330
REMARK  135  A    between atoms: _330  and  _331
REMARK  136  A    between atoms: _330  and  _333
REMARK  137  A    between atoms: _333  and  _334
REMARK  138  A    between atoms: _337  and  _339
REMARK  139  A    between atoms: _339  and  _340
REMARK  140  A    between atoms: _339  and  _342
REMARK  141  A    between atoms: _345  and  _347
REMARK  142  A    between atoms: _347  and  _348
REMARK  143  A    between atoms: _347  and  _350
REMARK  144  A    between atoms: _350  and  _351
REMARK  145  A    between atoms: _351  and  _352
REMARK  146  A    between atoms: _354  and  _356
REMARK  147  A    between atoms: _356  and  _357
REMARK  148  A    between atoms: _356  and  _359
REMARK  149  A    between atoms: _359  and  _360
REMARK  150  A    between atoms: _363  and  _365
REMARK  151  A    between atoms: _365  and  _366
REMARK  152  A    between atoms: _368  and  _370
REMARK  153  A    between atoms: _370  and  _371
REMARK  154  A    between atoms: _373  and  _375
REMARK  155  A    between atoms: _375  and  _376
REMARK  156  A    between atoms: _375  and  _378
REMARK  157  A    between atoms: _378  and  _379
REMARK  158  A    between atoms: _382  and  _384
REMARK  159  A    between atoms: _384  and  _385
REMARK  160  A    between atoms: _387  and  _389
REMARK  161  A    between atoms: _389  and  _390
REMARK  162  A    between atoms: _392  and  _394
REMARK  163  A    between atoms: _394  and  _395
REMARK  164  A    between atoms: _394  and  _397
REMARK  165  A    between atoms: _397  and  _398
REMARK  166  A    between atoms: _404  and  _406
REMARK  167  A    between atoms: _406  and  _407
REMARK  168  A    between atoms: _406  and  _409
REMARK  169  A    between atoms: _409  and  _410
REMARK  170  A    between atoms: _413  and  _415
REMARK  171  A    between atoms: _415  and  _416
REMARK  172  A    between atoms: _415  and  _418
REMARK  173  A    between atoms: _421  and  _423
REMARK  174  A    between atoms: _423  and  _424
REMARK  175  A    between atoms: _423  and  _426
REMARK  176  A    between atoms: _426  and  _427
REMARK  177  A    between atoms: _430  and  _432
REMARK  178  A    between atoms: _432  and  _433
REMARK  179  A    between atoms: _432  and  _435
REMARK  180  A    between atoms: _435  and  _436
REMARK  181  A    between atoms: _440  and  _441
REMARK  182  A    between atoms: _446  and  _448
REMARK  183  A    between atoms: _448  and  _449
REMARK  184  A    between atoms: _448  and  _451
REMARK  185  A    between atoms: _454  and  _456
REMARK  186  A    between atoms: _456  and  _457
REMARK  187  A    between atoms: _456  and  _459
REMARK  188  A    between atoms: _459  and  _460
REMARK  189  A    between atoms: _465  and  _467
REMARK  190  A    between atoms: _467  and  _468
REMARK  191  A    between atoms: _467  and  _470
REMARK  192  A    between atoms: _470  and  _471
REMARK  193  A    between atoms: _474  and  _476
REMARK  194  A    between atoms: _476  and  _477
REMARK  195  A    between atoms: _476  and  _479
REMARK  196  A    between atoms: _479  and  _480
REMARK  197  A    between atoms: _480  and  _481
REMARK  198  A    between atoms: _481  and  _482
REMARK                            x       y       z     vdW  Elec       q    Type
REMARK                         _______ _______ _______ _____ _____    ______ ____
ROOT
ATOM      1  C   GLY A   5       6.203  -1.516  20.597  0.00  0.00    +0.243 C 
ATOM      2  N   ALA A   6       7.492  -1.103  20.522  0.00  0.00    -0.297 N 
ATOM      3  H   ALA A   6       7.728  -0.092  20.591  0.00  0.00    +0.150 HD
ATOM      4  O   GLY A   5       5.877  -2.692  20.436  0.00  0.00    -0.273 OA
ENDROOT
BRANCH   2   5
ATOM      5  CA  ALA A   6       8.551  -2.107  20.342  0.00  0.00    +0.149 C 
ATOM      6  CB  ALA A   6       9.661  -1.568  19.447  0.00  0.00    +0.031 C 
BRANCH   5   7
ATOM      7  C   ALA A   6       9.165  -2.701  21.615  0.00  0.00    +0.241 C 
ATOM      8  O   ALA A   6       9.669  -2.061  22.526  0.00  0.00    -0.273 OA
ATOM      9  N   ASP A   7       9.112  -4.029  21.619  0.00  0.00    -0.297 N 
ATOM     10  H   ASP A   7       8.557  -4.529  20.896  0.00  0.00    +0.150 HD
BRANCH   9  11
ATOM     11  CA  ASP A   7       9.838  -4.791  22.645  0.00  0.00    +0.160 C 
BRANCH  11  12
ATOM     12  C   ASP A   7      11.373  -4.638  22.626  0.00  0.00    +0.241 C 
ATOM     13  O   ASP A   7      12.073  -4.576  23.621  0.00  0.00    -0.273 OA
ATOM     14  N   ASP A   8      11.861  -4.594  21.390  0.00  0.00    -0.297 N 
ATOM     15  H   ASP A   8      11.183  -4.512  20.606  0.00  0.00    +0.150 HD
BRANCH  14  16
ATOM     16  CA  ASP A   8      13.280  -4.652  21.055  0.00  0.00    +0.160 C 
BRANCH  16  17
ATOM     17  C   ASP A   8      13.748  -3.529  20.146  0.00  0.00    +0.241 C 
ATOM     18  N   THR A   9      15.069  -3.377  20.133  0.00  0.00    -0.295 N 
ATOM     19  H   THR A   9      15.671  -4.021  20.685  0.00  0.00    +0.150 HD
ATOM     20  O   ASP A   8      12.983  -2.852  19.483  0.00  0.00    -0.273 OA
BRANCH  18  21
ATOM     21  CA  THR A   9      15.689  -2.288  19.330  0.00  0.00    +0.176 C 
BRANCH  21  22
ATOM     22  C   THR A   9      16.168  -2.748  17.969  0.00  0.00    +0.243 C 
ATOM     23  O   THR A   9      16.972  -3.643  17.843  0.00  0.00    -0.273 OA
ATOM     24  N   VAL A  10      15.612  -2.144  16.947  0.00  0.00    -0.298 N 
ATOM     25  H   VAL A  10      14.998  -1.319  17.105  0.00  0.00    +0.150 HD
BRANCH  24  26
ATOM     26  CA  VAL A  10      15.849  -2.621  15.593  0.00  0.00    +0.137 C 
BRANCH  26  27
ATOM     27  CB  VAL A  10      14.518  -3.116  15.014  0.00  0.00    +0.026 C 
ATOM     28  CG2 VAL A  10      14.063  -4.290  15.870  0.00  0.00    +0.002 C 
ATOM     29  CG1 VAL A  10      14.578  -3.566  13.547  0.00  0.00    +0.002 C 
ENDBRANCH  26  27
BRANCH  26  30
ATOM     30  C   VAL A  10      16.503  -1.559  14.738  0.00  0.00    +0.227 C 
ATOM     31  O   VAL A  10      15.939  -0.497  14.526  0.00  0.00    -0.286 OA
ENDBRANCH  26  30
ENDBRANCH  24  26
ENDBRANCH  21  22
BRANCH  21  32
ATOM     32  CB  THR A   9      16.851  -1.587  20.106  0.00  0.00    +0.137 C 
ATOM     33  CG2 THR A   9      17.629  -0.548  19.287  0.00  0.00    +0.034 C 
BRANCH  32  34
ATOM     34  OG1 THR A   9      16.360  -0.962  21.300  0.00  0.00    -0.382 OA
ATOM     35  HG1 THR A   9      15.952  -1.648  21.886  0.00  0.00    +0.210 HD
ENDBRANCH  32  34
ENDBRANCH  21  32
ENDBRANCH  18  21
ENDBRANCH  16  17
BRANCH  16  36
ATOM     36  CB  ASP A   8      13.615  -5.914  20.256  0.00  0.00    +0.143 C 
BRANCH  36  37
ATOM     37  CG  ASP A   8      13.403  -7.271  20.937  0.00  0.00    +0.367 C 
ATOM     38  OD2 ASP A   8      13.879  -7.478  22.077  0.00  0.00    -0.246 OA
ATOM     39  OD1 ASP A   8      12.783  -8.114  20.271  0.00  0.00    -0.246 OA
ENDBRANCH  36  37
ENDBRANCH  16  36
ENDBRANCH  14  16
ENDBRANCH  11  12
BRANCH  11  40
ATOM     40  CB  ASP A   7       9.512  -6.271  22.479  0.00  0.00    +0.143 C 
BRANCH  40  41
ATOM     41  CG  ASP A   7       8.133  -6.745  22.899  0.00  0.00    +0.367 C 
ATOM     42  OD2 ASP A   7       7.455  -6.048  23.657  0.00  0.00    -0.246 OA
ATOM     43  OD1 ASP A   7       7.756  -7.845  22.469  0.00  0.00    -0.246 OA
ENDBRANCH  40  41
ENDBRANCH  11  40
ENDBRANCH   9  11
ENDBRANCH   5   7
ENDBRANCH   2   5
BRANCH   1  44
ATOM     44  CA  GLY A   5       5.173  -0.400  20.906  0.00  0.00    +0.176 C 
BRANCH  44  47
ATOM     45  C   THR A   4       6.004   0.933  22.778  0.00  0.00    +0.243 C 
ATOM     46  O   THR A   4       5.793   0.036  23.578  0.00  0.00    -0.273 OA
ATOM     47  N   GLY A   5       5.656   0.858  21.478  0.00  0.00    -0.295 N 
ATOM     48  H   GLY A   5       5.731   1.702  20.875  0.00  0.00    +0.150 HD
BRANCH  45  49
ATOM     49  CA  THR A   4       6.714   2.258  23.143  0.00  0.00    +0.176 C 
BRANCH  49  51
ATOM     50  C   ASP A   3       8.248   2.587  21.300  0.00  0.00    +0.241 C 
ATOM     51  N   THR A   4       7.241   3.084  22.009  0.00  0.00    -0.295 N 
ATOM     52  H   THR A   4       6.832   4.014  21.785  0.00  0.00    +0.150 HD
ATOM     53  O   ASP A   3       8.641   1.467  21.562  0.00  0.00    -0.273 OA
BRANCH  50  54
ATOM     54  CA  ASP A   3       8.798   3.452  20.120  0.00  0.00    +0.160 C 
BRANCH  54  56
ATOM     55  C   LEU A   2       9.869   5.589  20.226  0.00  0.00    +0.241 C 
ATOM     56  N   ASP A   3      10.009   4.262  20.364  0.00  0.00    -0.297 N 
ATOM     57  H   ASP A   3      10.917   3.829  20.627  0.00  0.00    +0.150 HD
ATOM     58  O   LEU A   2       8.750   6.062  20.072  0.00  0.00    -0.273 OA
BRANCH  55  59
ATOM     59  CA  LEU A   2      11.209   6.427  20.199  0.00  0.00    +0.149 C 
BRANCH  59  61
ATOM     60  C   LEU A   1      12.109   6.049  18.004  0.00  0.00    +0.238 C 
ATOM     61  N   LEU A   2      11.672   6.936  18.895  0.00  0.00    -0.297 N 
ATOM     62  H   LEU A   2      11.658   7.953  18.679  0.00  0.00    +0.150 HD
ATOM     63  O   LEU A   1      12.334   4.875  18.258  0.00  0.00    -0.274 OA
BRANCH  60  64
ATOM     64  CA  LEU A   1      12.192   6.568  16.594  0.00  0.00    +0.145 C 
BRANCH  64  65
ATOM     65  N   LEU A   1      13.514   6.468  15.921  0.00  0.00    -0.238 NA
ATOM     66  H   LEU A   1      13.685   5.632  15.327  0.00  0.00    +0.142 HD
ENDBRANCH  64  65
BRANCH  64  67
ATOM     67  CB  LEU A   1      11.040   5.757  15.925  0.00  0.00    +0.026 C 
BRANCH  67  68
ATOM     68  CG  LEU A   1      10.386   6.220  14.622  0.00  0.00    +0.002 C 
ATOM     69  CD2 LEU A   1       9.588   7.493  14.822  0.00  0.00    +0.000 C 
ATOM     70  CD1 LEU A   1       9.509   5.129  14.020  0.00  0.00    +0.000 C 
ENDBRANCH  67  68
ENDBRANCH  64  67
ENDBRANCH  60  64
ENDBRANCH  59  61
BRANCH  59  71
ATOM     71  CB  LEU A   2      11.234   7.643  21.120  0.00  0.00    +0.029 C 
BRANCH  71  72
ATOM     72  CG  LEU A   2      12.381   7.678  22.141  0.00  0.00    +0.002 C 
ATOM     73  CD2 LEU A   2      12.451   9.015  22.873  0.00  0.00    +0.000 C 
ATOM     74  CD1 LEU A   2      13.719   7.199  21.578  0.00  0.00    +0.000 C 
ENDBRANCH  71  72
ENDBRANCH  59  71
ENDBRANCH  55  59
ENDBRANCH  54  56
BRANCH  54  75
ATOM     75  CB  ASP A   3       9.015   2.651  18.801  0.00  0.00    +0.143 C 
BRANCH  75  76
ATOM     76  CG  ASP A   3       7.778   1.925  18.308  0.00  0.00    +0.367 C 
ATOM     77  OD2 ASP A   3       6.703   2.106  18.868  0.00  0.00    -0.246 OA
ATOM     78  OD1 ASP A   3       7.881   1.162  17.360  0.00  0.00    -0.246 OA
ENDBRANCH  75  76
ENDBRANCH  54  75
ENDBRANCH  50  54
ENDBRANCH  49  51
BRANCH  49  79
ATOM     79  CB  THR A   4       5.729   3.109  23.933  0.00  0.00    +0.137 C 
ATOM     80  CG2 THR A   4       6.425   4.368  24.451  0.00  0.00    +0.034 C 
BRANCH  79  81
ATOM     81  OG1 THR A   4       4.608   3.464  23.074  0.00  0.00    -0.382 OA
ATOM     82  HG1 THR A   4       4.159   2.639  22.761  0.00  0.00    +0.210 HD
ENDBRANCH  79  81
ENDBRANCH  49  79
ENDBRANCH  45  49
ENDBRANCH  44  47
ENDBRANCH   1  44
TORSDOF 35
REMARK  Name = ../refined-set-2016/3aid/3aid_pocket.pdb
REMARK  198 active torsions:
REMARK  status: ('A' for Active; 'I' for Inactive)
REMARK    1  A    between atoms: _1  and  _3
REMARK    2  A    between atoms: _3  and  _4
REMARK    3  A    between atoms: _3  and  _6
REMARK    4  A    between atoms: _6  and  _7
REMARK    5  A    between atoms: _7  and  _8
REMARK    6  A    between atoms: _8  and  _9
REMARK    7  A    between atoms: _18  and  _20
REMARK    8  A    between atoms: _20  and  _21
REMARK    9  A    between atoms: _20  and  _23
REMARK   10  A    between atoms: _23  and  _24
REMARK   11  A    between atoms: _27  and  _29
REMARK   12  A    between atoms: _29  and  _30
REMARK   13  A    between atoms: _29  and  _32
REMARK   14  A    between atoms: _32  and  _33
REMARK   15  A    between atoms: _36  and  _38
REMARK   16  A    between atoms: _38  and  _39
REMARK   17  A    between atoms: _38  and  _41
REMARK   18  A    between atoms: _41  and  _42
REMARK   19  A    between atoms: _45  and  _47
REMARK   20  A    between atoms: _47  and  _48
REMARK   21  A    between atoms: _47  and  _50
REMARK   22  A    between atoms: _50  and  _51
REMARK   23  A    between atoms: _54  and  _56
REMARK   24  A    between atoms: _56  and  _57
REMARK   25  A    between atoms: _59  and  _61
REMARK   26  A    between atoms: _61  and  _62
REMARK   27  A    between atoms: _65  and  _67
REMARK   28  A    between atoms: _67  and  _68
REMARK   29  A    between atoms: _67  and  _70
REMARK   30  A    between atoms: _70  and  _71
REMARK   31  A    between atoms: _74  and  _76
REMARK   32  A    between atoms: _76  and  _77
REMARK   33  A    between atoms: _76  and  _79
REMARK   34  A    between atoms: _79  and  _80
REMARK   35  A    between atoms: _83  and  _85
REMARK   36  A    between atoms: _85  and  _86
REMARK   37  A    between atoms: _85  and  _88
REMARK   38  A    between atoms: _88  and  _89
REMARK   39  A    between atoms: _92  and  _94
REMARK   40  A    between atoms: _94  and  _95
REMARK   41  A    between atoms: _94  and  _97
REMARK   42  A    between atoms: _100  and  _102
REMARK   43  A    between atoms: _102  and  _103
REMARK   44  A    between atoms: _102  and  _105
REMARK   45  A    between atoms: _105  and  _106
REMARK   46  A    between atoms: _106  and  _107
REMARK   47  A    between atoms: _107  and  _108
REMARK   48  A    between atoms: _108  and  _109
REMARK   49  A    between atoms: _113  and  _115
REMARK   50  A    between atoms: _115  and  _116
REMARK   51  A    between atoms: _115  and  _118
REMARK   52  A    between atoms: _118  and  _119
REMARK   53  A    between atoms: _122  and  _124
REMARK   54  A    between atoms: _124  and  _125
REMARK   55  A    between atoms: _127  and  _129
REMARK   56  A    between atoms: _129  and  _130
REMARK   57  A    between atoms: _134  and  _135
REMARK   58  A    between atoms: _134  and  _137
REMARK   59  A    between atoms: _137  and  _138
REMARK   60  A    between atoms: _141  and  _143
REMARK   61  A    between atoms: _143  and  _144
REMARK   62  A    between atoms: _146  and  _148
REMARK   63  A    between atoms: _148  and  _149
REMARK   64  A    between atoms: _151  and  _153
REMARK   65  A    between atoms: _153  and  _154
REMARK   66  A    between atoms: _153  and  _156
REMARK   67  A    between atoms: _156  and  _157
REMARK   68  A    between atoms: _160  and  _162
REMARK   69  A    between atoms: _162  and  _163
REMARK   70  A    between atoms: _162  and  _165
REMARK   71  A    between atoms: _165  and  _166
REMARK   72  A    between atoms: _169  and  _171
REMARK   73  A    between atoms: _171  and  _172
REMARK   74  A    between atoms: _171  and  _174
REMARK   75  A    between atoms: _174  and  _175
REMARK   76  A    between atoms: _179  and  _180
REMARK   77  A    between atoms: _185  and  _187
REMARK   78  A    between atoms: _187  and  _188
REMARK   79  A    between atoms: _187  and  _190
REMARK   80  A    between atoms: _193  and  _195
REMARK   81  A    between atoms: _195  and  _196
REMARK   82  A    between atoms: _195  and  _198
REMARK   83  A    between atoms: _198  and  _199
REMARK   84  A    between atoms: _204  and  _206
REMARK   85  A    between atoms: _206  and  _207
REMARK   86  A    between atoms: _206  and  _209
REMARK   87  A    between atoms: _209  and  _210
REMARK   88  A    between atoms: _213  and  _215
REMARK   89  A    between atoms: _215  and  _216
REMARK   90  A    between atoms: _218  and  _220
REMARK   91  A    between atoms: _220  and  _221
REMARK   92  A    between atoms: _220  and  _223
REMARK   93  A    between atoms: _223  and  _224
REMARK   94  A    between atoms: _224  and  _225
REMARK   95  A    between atoms: _225  and  _226
REMARK   96  A    between atoms: _235  and  _237
REMARK   97  A    between atoms: _237  and  _238
REMARK   98  A    between atoms: _237  and  _240
REMARK   99  A    between atoms: _240  and  _241
REMARK  100  A    between atoms: _246  and  _248
REMARK  101  A    between atoms: _248  and  _249
REMARK  102  A    between atoms: _248  and  _251
REMARK  103  A    between atoms: _251  and  _252
REMARK  104  A    between atoms: _252  and  _253
REMARK  105  A    between atoms: _253  and  _254
REMARK  106  A    between atoms: _263  and  _265
REMARK  107  A    between atoms: _265  and  _266
REMARK  108  A    between atoms: _265  and  _268
REMARK  109  A    between atoms: _268  and  _269
REMARK  110  A    between atoms: _272  and  _274
REMARK  111  A    between atoms: _274  and  _275
REMARK  112  A    between atoms: _274  and  _277
REMARK  113  A    between atoms: _277  and  _278
REMARK  114  A    between atoms: _281  and  _283
REMARK  115  A    between atoms: _283  and  _284
REMARK  116  A    between atoms: _283  and  _286
REMARK  117  A    between atoms: _286  and  _287
REMARK  118  A    between atoms: _290  and  _292
REMARK  119  A    between atoms: _292  and  _293
REMARK  120  A    between atoms: _292  and  _295
REMARK  121  A    between atoms: _295  and  _296
REMARK  122  A    between atoms: _299  and  _301
REMARK  123  A    between atoms: _301  and  _302
REMARK  124  A    between atoms: _304  and  _306
REMARK  125  A    between atoms: _306  and  _307
REMARK  126  A    between atoms: _310  and  _312
REMARK  127  A    between atoms: _312  and  _313
REMARK  128  A    between atoms: _312  and  _315
REMARK  129  A    between atoms: _315  and  _316
REMARK  130  A    between atoms: _319  and  _321
REMARK  131  A    between atoms: _321  and  _322
REMARK  132  A    between atoms: _321  and  _324
REMARK  133  A    between atoms: _324  and  _325
REMARK  134  A    between atoms: _328  and  _330
REMARK  135  A    between atoms: _330  and  _331
REMARK  136  A    between atoms: _330  and  _333
REMARK  137  A    between atoms: _333  and  _334
REMARK  138  A    between atoms: _337  and  _339
REMARK  139  A    between atoms: _339  and  _340
REMARK  140  A    between atoms: _339  and  _342
REMARK  141  A    between atoms: _345  and  _347
REMARK  142  A    between atoms: _347  and  _348
REMARK  143  A    between atoms: _347  and  _350
REMARK  144  A    between atoms: _350  and  _351
REMARK  145  A    between atoms: _351  and  _352
REMARK  146  A    between atoms: _354  and  _356
REMARK  147  A    between atoms: _356  and  _357
REMARK  148  A    between atoms: _356  and  _359
REMARK  149  A    between atoms: _359  and  _360
REMARK  150  A    between atoms: _363  and  _365
REMARK  151  A    between atoms: _365  and  _366
REMARK  152  A    between atoms: _368  and  _370
REMARK  153  A    between atoms: _370  and  _371
REMARK  154  A    between atoms: _373  and  _375
REMARK  155  A    between atoms: _375  and  _376
REMARK  156  A    between atoms: _375  and  _378
REMARK  157  A    between atoms: _378  and  _379
REMARK  158  A    between atoms: _382  and  _384
REMARK  159  A    between atoms: _384  and  _385
REMARK  160  A    between atoms: _387  and  _389
REMARK  161  A    between atoms: _389  and  _390
REMARK  162  A    between atoms: _392  and  _394
REMARK  163  A    between atoms: _394  and  _395
REMARK  164  A    between atoms: _394  and  _397
REMARK  165  A    between atoms: _397  and  _398
REMARK  166  A    between atoms: _404  and  _406
REMARK  167  A    between atoms: _406  and  _407
REMARK  168  A    between atoms: _406  and  _409
REMARK  169  A    between atoms: _409  and  _410
REMARK  170  A    between atoms: _413  and  _415
REMARK  171  A    between atoms: _415  and  _416
REMARK  172  A    between atoms: _415  and  _418
REMARK  173  A    between atoms: _421  and  _423
REMARK  174  A    between atoms: _423  and  _424
REMARK  175  A    between atoms: _423  and  _426
REMARK  176  A    between atoms: _426  and  _427
REMARK  177  A    between atoms: _430  and  _432
REMARK  178  A    between atoms: _432  and  _433
REMARK  179  A    between atoms: _432  and  _435
REMARK  180  A    between atoms: _435  and  _436
REMARK  181  A    between atoms: _440  and  _441
REMARK  182  A    between atoms: _446  and  _448
REMARK  183  A    between atoms: _448  and  _449
REMARK  184  A    between atoms: _448  and  _451
REMARK  185  A    between atoms: _454  and  _456
REMARK  186  A    between atoms: _456  and  _457
REMARK  187  A    between atoms: _456  and  _459
REMARK  188  A    between atoms: _459  and  _460
REMARK  189  A    between atoms: _465  and  _467
REMARK  190  A    between atoms: _467  and  _468
REMARK  191  A    between atoms: _467  and  _470
REMARK  192  A    between atoms: _470  and  _471
REMARK  193  A    between atoms: _474  and  _476
REMARK  194  A    between atoms: _476  and  _477
REMARK  195  A    between atoms: _476  and  _479
REMARK  196  A    between atoms: _479  and  _480
REMARK  197  A    between atoms: _480  and  _481
REMARK  198  A    between atoms: _481  and  _482
REMARK                            x       y       z     vdW  Elec       q    Type
REMARK                         _______ _______ _______ _____ _____    ______ ____
ROOT
ATOM      1  CA  ILE A   5       2.706  -5.646  10.491  0.00  0.00    +0.149 C 
ENDROOT
BRANCH   1   3
ATOM      2  C   GLY A   4       4.027  -7.270  11.734  0.00  0.00    +0.243 C 
ATOM      3  N   ILE A   5       3.573  -6.002  11.639  0.00  0.00    -0.297 N 
ATOM      4  H   ILE A   5       3.826  -5.291  12.355  0.00  0.00    +0.150 HD
ATOM      5  O   GLY A   4       3.748  -8.129  10.915  0.00  0.00    -0.273 OA
BRANCH   2   6
ATOM      6  CA  GLY A   4       4.937  -7.642  12.885  0.00  0.00    +0.176 C 
BRANCH   6   9
ATOM      7  C   GLY A   3       6.758  -9.082  13.466  0.00  0.00    +0.243 C 
ATOM      8  O   GLY A   3       6.748  -8.612  14.598  0.00  0.00    -0.273 OA
ATOM      9  N   GLY A   4       5.941  -8.656  12.514  0.00  0.00    -0.295 N 
ATOM     10  H   GLY A   4       6.005  -9.023  11.543  0.00  0.00    +0.150 HD
BRANCH   7  11
ATOM     11  CA  GLY A   3       7.681 -10.220  13.032  0.00  0.00    +0.176 C 
BRANCH  11  13
ATOM     12  C   ILE A   2      10.063 -10.567  13.256  0.00  0.00    +0.241 C 
ATOM     13  N   GLY A   3       8.867 -10.542  13.860  0.00  0.00    -0.295 N 
ATOM     14  H   GLY A   3       8.774 -10.742  14.876  0.00  0.00    +0.150 HD
ATOM     15  O   ILE A   2      10.203 -10.268  12.071  0.00  0.00    -0.273 OA
BRANCH  12  16
ATOM     16  CA  ILE A   2      11.224 -11.056  14.153  0.00  0.00    +0.148 C 
BRANCH  16  19
ATOM     17  C   MET A   1      12.336 -13.203  13.877  0.00  0.00    +0.238 C 
ATOM     18  O   MET A   1      11.738 -13.624  14.856  0.00  0.00    -0.274 OA
ATOM     19  N   ILE A   2      12.207 -11.923  13.471  0.00  0.00    -0.297 N 
ATOM     20  H   ILE A   2      12.789 -11.553  12.692  0.00  0.00    +0.150 HD
BRANCH  17  21
ATOM     21  CA  MET A   1      13.281 -14.132  13.037  0.00  0.00    +0.146 C 
BRANCH  21  22
ATOM     22  N   MET A   1      14.490 -14.663  13.752  0.00  0.00    -0.238 NA
ATOM     23  H   MET A   1      14.416 -15.507  14.356  0.00  0.00    +0.142 HD
ENDBRANCH  21  22
BRANCH  21  24
ATOM     24  CB  MET A   1      12.405 -15.249  12.457  0.00  0.00    +0.038 C 
BRANCH  24  25
ATOM     25  CG  MET A   1      13.121 -16.153  11.481  0.00  0.00    +0.060 C 
BRANCH  25  26
ATOM     26  SD  MET A   1      13.485 -15.302   9.972  0.00  0.00    -0.139 S 
ATOM     27  CE  MET A   1      11.863 -15.290   9.206  0.00  0.00    +0.069 C 
ENDBRANCH  25  26
ENDBRANCH  24  25
ENDBRANCH  21  24
ENDBRANCH  17  21
ENDBRANCH  16  19
BRANCH  16  28
ATOM     28  CB  ILE A   2      11.868  -9.870  14.915  0.00  0.00    +0.027 C 
ATOM     29  CG2 ILE A   2      12.748 -10.294  16.084  0.00  0.00    +0.002 C 
BRANCH  28  30
ATOM     30  CG1 ILE A   2      12.676  -8.934  14.035  0.00  0.00    +0.002 C 
ATOM     31  CD1 ILE A   2      12.795  -7.565  14.730  0.00  0.00    +0.000 C 
ENDBRANCH  28  30
ENDBRANCH  16  28
ENDBRANCH  12  16
ENDBRANCH  11  13
ENDBRANCH   7  11
ENDBRANCH   6   9
ENDBRANCH   2   6
ENDBRANCH   1   3
BRANCH   1  32
ATOM     32  C   ILE A   5       3.278  -6.090   9.113  0.00  0.00    +0.241 C 
ATOM     33  O   ILE A   5       4.400  -5.782   8.730  0.00  0.00    -0.273 OA
ATOM     34  N   GLY A   6       2.506  -6.887   8.376  0.00  0.00    -0.295 N 
ATOM     35  H   GLY A   6       1.582  -7.236   8.702  0.00  0.00    +0.150 HD
BRANCH  34  36
ATOM     36  CA  GLY A   6       3.070  -7.232   7.062  0.00  0.00    +0.176 C 
BRANCH  36  37
ATOM     37  C   GLY A   6       3.804  -8.561   7.004  0.00  0.00    +0.243 C 
ATOM     38  N   GLY A   7       4.281  -8.956   8.192  0.00  0.00    -0.295 N 
ATOM     39  H   GLY A   7       4.093  -8.377   9.035  0.00  0.00    +0.150 HD
ATOM     40  O   GLY A   6       3.910  -9.207   5.975  0.00  0.00    -0.273 OA
BRANCH  38  41
ATOM     41  CA  GLY A   7       5.063 -10.188   8.325  0.00  0.00    +0.176 C 
BRANCH  41  42
ATOM     42  C   GLY A   7       6.412 -10.082   9.085  0.00  0.00    +0.243 C 
ATOM     43  O   GLY A   7       6.637  -9.230   9.933  0.00  0.00    -0.273 OA
ATOM     44  N   PHE A   8       7.281 -11.045   8.747  0.00  0.00    -0.297 N 
ATOM     45  H   PHE A   8       6.976 -11.688   7.988  0.00  0.00    +0.150 HD
BRANCH  44  46
ATOM     46  CA  PHE A   8       8.617 -11.307   9.317  0.00  0.00    +0.153 C 
BRANCH  46  47
ATOM     47  C   PHE A   8       9.829 -10.842   8.488  0.00  0.00    +0.241 C 
ATOM     48  N   ILE A   9      10.807 -10.278   9.234  0.00  0.00    -0.298 N 
ATOM     49  H   ILE A   9      10.592  -9.965  10.202  0.00  0.00    +0.150 HD
ATOM     50  O   PHE A   8       9.897 -11.013   7.274  0.00  0.00    -0.273 OA
BRANCH  48  51
ATOM     51  CA  ILE A   9      12.170 -10.098   8.704  0.00  0.00    +0.137 C 
BRANCH  51  52
ATOM     52  CB  ILE A   9      12.572  -8.613   8.634  0.00  0.00    +0.026 C 
ATOM     53  CG2 ILE A   9      11.639  -7.857   7.703  0.00  0.00    +0.002 C 
BRANCH  52  54
ATOM     54  CG1 ILE A   9      12.653  -7.928  10.004  0.00  0.00    +0.002 C 
ATOM     55  CD1 ILE A   9      13.384  -6.579   9.991  0.00  0.00    +0.000 C 
ENDBRANCH  52  54
ENDBRANCH  51  52
BRANCH  51  56
ATOM     56  C   ILE A   9      13.260 -10.938   9.408  0.00  0.00    +0.227 C 
ATOM     57  O   ILE A   9      13.132 -11.362  10.558  0.00  0.00    -0.286 OA
ENDBRANCH  51  56
ENDBRANCH  48  51
ENDBRANCH  46  47
BRANCH  46  58
ATOM     58  CB  PHE A   8       8.808 -12.806   9.572  0.00  0.00    +0.055 C 
BRANCH  58  59
ATOM     59  CG  PHE A   8       8.086 -13.211  10.823  0.00  0.00    -0.020 A 
ATOM     60  CD2 PHE A   8       8.807 -13.338  12.023  0.00  0.00    -0.004 A 
ATOM     61  CE2 PHE A   8       8.152 -13.838  13.157  0.00  0.00    -0.000 A 
ATOM     62  CZ  PHE A   8       6.780 -14.160  13.088  0.00  0.00    -0.000 A 
ATOM     63  CE1 PHE A   8       6.043 -13.950  11.908  0.00  0.00    -0.000 A 
ATOM     64  CD1 PHE A   8       6.707 -13.481  10.761  0.00  0.00    -0.004 A 
ENDBRANCH  58  59
ENDBRANCH  46  58
ENDBRANCH  44  46
ENDBRANCH  41  42
ENDBRANCH  38  41
ENDBRANCH  36  37
ENDBRANCH  34  36
ENDBRANCH   1  32
BRANCH   1  65
ATOM     65  CB  ILE A   5       2.409  -4.126  10.524  0.00  0.00    +0.027 C 
ATOM     66  CG2 ILE A   5       1.502  -3.590   9.395  0.00  0.00    +0.002 C 
BRANCH  65  67
ATOM     67  CG1 ILE A   5       1.846  -3.670  11.872  0.00  0.00    +0.002 C 
ATOM     68  CD1 ILE A   5       0.604  -4.431  12.287  0.00  0.00    +0.000 C 
ENDBRANCH  65  67
ENDBRANCH   1  65
TORSDOF 29
REMARK  Name = ../refined-set-2016/3aid/3aid_pocket.pdb
REMARK  198 active torsions:
REMARK  status: ('A' for Active; 'I' for Inactive)
REMARK    1  A    between atoms: _1  and  _3
REMARK    2  A    between atoms: _3  and  _4
REMARK    3  A    between atoms: _3  and  _6
REMARK    4  A    between atoms: _6  and  _7
REMARK    5  A    between atoms: _7  and  _8
REMARK    6  A    between atoms: _8  and  _9
REMARK    7  A    between atoms: _18  and  _20
REMARK    8  A    between atoms: _20  and  _21
REMARK    9  A    between atoms: _20  and  _23
REMARK   10  A    between atoms: _23  and  _24
REMARK   11  A    between atoms: _27  and  _29
REMARK   12  A    between atoms: _29  and  _30
REMARK   13  A    between atoms: _29  and  _32
REMARK   14  A    between atoms: _32  and  _33
REMARK   15  A    between atoms: _36  and  _38
REMARK   16  A    between atoms: _38  and  _39
REMARK   17  A    between atoms: _38  and  _41
REMARK   18  A    between atoms: _41  and  _42
REMARK   19  A    between atoms: _45  and  _47
REMARK   20  A    between atoms: _47  and  _48
REMARK   21  A    between atoms: _47  and  _50
REMARK   22  A    between atoms: _50  and  _51
REMARK   23  A    between atoms: _54  and  _56
REMARK   24  A    between atoms: _56  and  _57
REMARK   25  A    between atoms: _59  and  _61
REMARK   26  A    between atoms: _61  and  _62
REMARK   27  A    between atoms: _65  and  _67
REMARK   28  A    between atoms: _67  and  _68
REMARK   29  A    between atoms: _67  and  _70
REMARK   30  A    between atoms: _70  and  _71
REMARK   31  A    between atoms: _74  and  _76
REMARK   32  A    between atoms: _76  and  _77
REMARK   33  A    between atoms: _76  and  _79
REMARK   34  A    between atoms: _79  and  _80
REMARK   35  A    between atoms: _83  and  _85
REMARK   36  A    between atoms: _85  and  _86
REMARK   37  A    between atoms: _85  and  _88
REMARK   38  A    between atoms: _88  and  _89
REMARK   39  A    between atoms: _92  and  _94
REMARK   40  A    between atoms: _94  and  _95
REMARK   41  A    between atoms: _94  and  _97
REMARK   42  A    between atoms: _100  and  _102
REMARK   43  A    between atoms: _102  and  _103
REMARK   44  A    between atoms: _102  and  _105
REMARK   45  A    between atoms: _105  and  _106
REMARK   46  A    between atoms: _106  and  _107
REMARK   47  A    between atoms: _107  and  _108
REMARK   48  A    between atoms: _108  and  _109
REMARK   49  A    between atoms: _113  and  _115
REMARK   50  A    between atoms: _115  and  _116
REMARK   51  A    between atoms: _115  and  _118
REMARK   52  A    between atoms: _118  and  _119
REMARK   53  A    between atoms: _122  and  _124
REMARK   54  A    between atoms: _124  and  _125
REMARK   55  A    between atoms: _127  and  _129
REMARK   56  A    between atoms: _129  and  _130
REMARK   57  A    between atoms: _134  and  _135
REMARK   58  A    between atoms: _134  and  _137
REMARK   59  A    between atoms: _137  and  _138
REMARK   60  A    between atoms: _141  and  _143
REMARK   61  A    between atoms: _143  and  _144
REMARK   62  A    between atoms: _146  and  _148
REMARK   63  A    between atoms: _148  and  _149
REMARK   64  A    between atoms: _151  and  _153
REMARK   65  A    between atoms: _153  and  _154
REMARK   66  A    between atoms: _153  and  _156
REMARK   67  A    between atoms: _156  and  _157
REMARK   68  A    between atoms: _160  and  _162
REMARK   69  A    between atoms: _162  and  _163
REMARK   70  A    between atoms: _162  and  _165
REMARK   71  A    between atoms: _165  and  _166
REMARK   72  A    between atoms: _169  and  _171
REMARK   73  A    between atoms: _171  and  _172
REMARK   74  A    between atoms: _171  and  _174
REMARK   75  A    between atoms: _174  and  _175
REMARK   76  A    between atoms: _179  and  _180
REMARK   77  A    between atoms: _185  and  _187
REMARK   78  A    between atoms: _187  and  _188
REMARK   79  A    between atoms: _187  and  _190
REMARK   80  A    between atoms: _193  and  _195
REMARK   81  A    between atoms: _195  and  _196
REMARK   82  A    between atoms: _195  and  _198
REMARK   83  A    between atoms: _198  and  _199
REMARK   84  A    between atoms: _204  and  _206
REMARK   85  A    between atoms: _206  and  _207
REMARK   86  A    between atoms: _206  and  _209
REMARK   87  A    between atoms: _209  and  _210
REMARK   88  A    between atoms: _213  and  _215
REMARK   89  A    between atoms: _215  and  _216
REMARK   90  A    between atoms: _218  and  _220
REMARK   91  A    between atoms: _220  and  _221
REMARK   92  A    between atoms: _220  and  _223
REMARK   93  A    between atoms: _223  and  _224
REMARK   94  A    between atoms: _224  and  _225
REMARK   95  A    between atoms: _225  and  _226
REMARK   96  A    between atoms: _235  and  _237
REMARK   97  A    between atoms: _237  and  _238
REMARK   98  A    between atoms: _237  and  _240
REMARK   99  A    between atoms: _240  and  _241
REMARK  100  A    between atoms: _246  and  _248
REMARK  101  A    between atoms: _248  and  _249
REMARK  102  A    between atoms: _248  and  _251
REMARK  103  A    between atoms: _251  and  _252
REMARK  104  A    between atoms: _252  and  _253
REMARK  105  A    between atoms: _253  and  _254
REMARK  106  A    between atoms: _263  and  _265
REMARK  107  A    between atoms: _265  and  _266
REMARK  108  A    between atoms: _265  and  _268
REMARK  109  A    between atoms: _268  and  _269
REMARK  110  A    between atoms: _272  and  _274
REMARK  111  A    between atoms: _274  and  _275
REMARK  112  A    between atoms: _274  and  _277
REMARK  113  A    between atoms: _277  and  _278
REMARK  114  A    between atoms: _281  and  _283
REMARK  115  A    between atoms: _283  and  _284
REMARK  116  A    between atoms: _283  and  _286
REMARK  117  A    between atoms: _286  and  _287
REMARK  118  A    between atoms: _290  and  _292
REMARK  119  A    between atoms: _292  and  _293
REMARK  120  A    between atoms: _292  and  _295
REMARK  121  A    between atoms: _295  and  _296
REMARK  122  A    between atoms: _299  and  _301
REMARK  123  A    between atoms: _301  and  _302
REMARK  124  A    between atoms: _304  and  _306
REMARK  125  A    between atoms: _306  and  _307
REMARK  126  A    between atoms: _310  and  _312
REMARK  127  A    between atoms: _312  and  _313
REMARK  128  A    between atoms: _312  and  _315
REMARK  129  A    between atoms: _315  and  _316
REMARK  130  A    between atoms: _319  and  _321
REMARK  131  A    between atoms: _321  and  _322
REMARK  132  A    between atoms: _321  and  _324
REMARK  133  A    between atoms: _324  and  _325
REMARK  134  A    between atoms: _328  and  _330
REMARK  135  A    between atoms: _330  and  _331
REMARK  136  A    between atoms: _330  and  _333
REMARK  137  A    between atoms: _333  and  _334
REMARK  138  A    between atoms: _337  and  _339
REMARK  139  A    between atoms: _339  and  _340
REMARK  140  A    between atoms: _339  and  _342
REMARK  141  A    between atoms: _345  and  _347
REMARK  142  A    between atoms: _347  and  _348
REMARK  143  A    between atoms: _347  and  _350
REMARK  144  A    between atoms: _350  and  _351
REMARK  145  A    between atoms: _351  and  _352
REMARK  146  A    between atoms: _354  and  _356
REMARK  147  A    between atoms: _356  and  _357
REMARK  148  A    between atoms: _356  and  _359
REMARK  149  A    between atoms: _359  and  _360
REMARK  150  A    between atoms: _363  and  _365
REMARK  151  A    between atoms: _365  and  _366
REMARK  152  A    between atoms: _368  and  _370
REMARK  153  A    between atoms: _370  and  _371
REMARK  154  A    between atoms: _373  and  _375
REMARK  155  A    between atoms: _375  and  _376
REMARK  156  A    between atoms: _375  and  _378
REMARK  157  A    between atoms: _378  and  _379
REMARK  158  A    between atoms: _382  and  _384
REMARK  159  A    between atoms: _384  and  _385
REMARK  160  A    between atoms: _387  and  _389
REMARK  161  A    between atoms: _389  and  _390
REMARK  162  A    between atoms: _392  and  _394
REMARK  163  A    between atoms: _394  and  _395
REMARK  164  A    between atoms: _394  and  _397
REMARK  165  A    between atoms: _397  and  _398
REMARK  166  A    between atoms: _404  and  _406
REMARK  167  A    between atoms: _406  and  _407
REMARK  168  A    between atoms: _406  and  _409
REMARK  169  A    between atoms: _409  and  _410
REMARK  170  A    between atoms: _413  and  _415
REMARK  171  A    between atoms: _415  and  _416
REMARK  172  A    between atoms: _415  and  _418
REMARK  173  A    between atoms: _421  and  _423
REMARK  174  A    between atoms: _423  and  _424
REMARK  175  A    between atoms: _423  and  _426
REMARK  176  A    between atoms: _426  and  _427
REMARK  177  A    between atoms: _430  and  _432
REMARK  178  A    between atoms: _432  and  _433
REMARK  179  A    between atoms: _432  and  _435
REMARK  180  A    between atoms: _435  and  _436
REMARK  181  A    between atoms: _440  and  _441
REMARK  182  A    between atoms: _446  and  _448
REMARK  183  A    between atoms: _448  and  _449
REMARK  184  A    between atoms: _448  and  _451
REMARK  185  A    between atoms: _454  and  _456
REMARK  186  A    between atoms: _456  and  _457
REMARK  187  A    between atoms: _456  and  _459
REMARK  188  A    between atoms: _459  and  _460
REMARK  189  A    between atoms: _465  and  _467
REMARK  190  A    between atoms: _467  and  _468
REMARK  191  A    between atoms: _467  and  _470
REMARK  192  A    between atoms: _470  and  _471
REMARK  193  A    between atoms: _474  and  _476
REMARK  194  A    between atoms: _476  and  _477
REMARK  195  A    between atoms: _476  and  _479
REMARK  196  A    between atoms: _479  and  _480
REMARK  197  A    between atoms: _480  and  _481
REMARK  198  A    between atoms: _481  and  _482
REMARK                            x       y       z     vdW  Elec       q    Type
REMARK                         _______ _______ _______ _____ _____    ______ ____
ROOT
ATOM      1  CA  VAL A   1      17.925  -9.967  11.800  0.00  0.00    +0.133 C 
ENDROOT
BRANCH   1   2
ATOM      2  CB  VAL A   1      16.825  -9.604  12.832  0.00  0.00    +0.023 C 
ATOM      3  CG2 VAL A   1      17.084  -9.976  14.294  0.00  0.00    +0.002 C 
ATOM      4  CG1 VAL A   1      16.255  -8.214  12.568  0.00  0.00    +0.002 C 
ENDBRANCH   1   2
BRANCH   1   5
ATOM      5  N   VAL A   1      17.170 -10.858  10.902  0.00  0.00    -0.239 NA
ATOM      6  H   VAL A   1      17.044 -11.833  11.242  0.00  0.00    +0.142 HD
ENDBRANCH   1   5
BRANCH   1   7
ATOM      7  C   VAL A   1      19.180 -10.675  12.405  0.00  0.00    +0.224 C 
ATOM      8  O   VAL A   1      19.237 -11.905  12.504  0.00  0.00    -0.287 OA
ENDBRANCH   1   7
TORSDOF 3
REMARK  Name = ../refined-set-2016/3aid/3aid_pocket.pdb
REMARK  198 active torsions:
REMARK  status: ('A' for Active; 'I' for Inactive)
REMARK    1  A    between atoms: _1  and  _3
REMARK    2  A    between atoms: _3  and  _4
REMARK    3  A    between atoms: _3  and  _6
REMARK    4  A    between atoms: _6  and  _7
REMARK    5  A    between atoms: _7  and  _8
REMARK    6  A    between atoms: _8  and  _9
REMARK    7  A    between atoms: _18  and  _20
REMARK    8  A    between atoms: _20  and  _21
REMARK    9  A    between atoms: _20  and  _23
REMARK   10  A    between atoms: _23  and  _24
REMARK   11  A    between atoms: _27  and  _29
REMARK   12  A    between atoms: _29  and  _30
REMARK   13  A    between atoms: _29  and  _32
REMARK   14  A    between atoms: _32  and  _33
REMARK   15  A    between atoms: _36  and  _38
REMARK   16  A    between atoms: _38  and  _39
REMARK   17  A    between atoms: _38  and  _41
REMARK   18  A    between atoms: _41  and  _42
REMARK   19  A    between atoms: _45  and  _47
REMARK   20  A    between atoms: _47  and  _48
REMARK   21  A    between atoms: _47  and  _50
REMARK   22  A    between atoms: _50  and  _51
REMARK   23  A    between atoms: _54  and  _56
REMARK   24  A    between atoms: _56  and  _57
REMARK   25  A    between atoms: _59  and  _61
REMARK   26  A    between atoms: _61  and  _62
REMARK   27  A    between atoms: _65  and  _67
REMARK   28  A    between atoms: _67  and  _68
REMARK   29  A    between atoms: _67  and  _70
REMARK   30  A    between atoms: _70  and  _71
REMARK   31  A    between atoms: _74  and  _76
REMARK   32  A    between atoms: _76  and  _77
REMARK   33  A    between atoms: _76  and  _79
REMARK   34  A    between atoms: _79  and  _80
REMARK   35  A    between atoms: _83  and  _85
REMARK   36  A    between atoms: _85  and  _86
REMARK   37  A    between atoms: _85  and  _88
REMARK   38  A    between atoms: _88  and  _89
REMARK   39  A    between atoms: _92  and  _94
REMARK   40  A    between atoms: _94  and  _95
REMARK   41  A    between atoms: _94  and  _97
REMARK   42  A    between atoms: _100  and  _102
REMARK   43  A    between atoms: _102  and  _103
REMARK   44  A    between atoms: _102  and  _105
REMARK   45  A    between atoms: _105  and  _106
REMARK   46  A    between atoms: _106  and  _107
REMARK   47  A    between atoms: _107  and  _108
REMARK   48  A    between atoms: _108  and  _109
REMARK   49  A    between atoms: _113  and  _115
REMARK   50  A    between atoms: _115  and  _116
REMARK   51  A    between atoms: _115  and  _118
REMARK   52  A    between atoms: _118  and  _119
REMARK   53  A    between atoms: _122  and  _124
REMARK   54  A    between atoms: _124  and  _125
REMARK   55  A    between atoms: _127  and  _129
REMARK   56  A    between atoms: _129  and  _130
REMARK   57  A    between atoms: _134  and  _135
REMARK   58  A    between atoms: _134  and  _137
REMARK   59  A    between atoms: _137  and  _138
REMARK   60  A    between atoms: _141  and  _143
REMARK   61  A    between atoms: _143  and  _144
REMARK   62  A    between atoms: _146  and  _148
REMARK   63  A    between atoms: _148  and  _149
REMARK   64  A    between atoms: _151  and  _153
REMARK   65  A    between atoms: _153  and  _154
REMARK   66  A    between atoms: _153  and  _156
REMARK   67  A    between atoms: _156  and  _157
REMARK   68  A    between atoms: _160  and  _162
REMARK   69  A    between atoms: _162  and  _163
REMARK   70  A    between atoms: _162  and  _165
REMARK   71  A    between atoms: _165  and  _166
REMARK   72  A    between atoms: _169  and  _171
REMARK   73  A    between atoms: _171  and  _172
REMARK   74  A    between atoms: _171  and  _174
REMARK   75  A    between atoms: _174  and  _175
REMARK   76  A    between atoms: _179  and  _180
REMARK   77  A    between atoms: _185  and  _187
REMARK   78  A    between atoms: _187  and  _188
REMARK   79  A    between atoms: _187  and  _190
REMARK   80  A    between atoms: _193  and  _195
REMARK   81  A    between atoms: _195  and  _196
REMARK   82  A    between atoms: _195  and  _198
REMARK   83  A    between atoms: _198  and  _199
REMARK   84  A    between atoms: _204  and  _206
REMARK   85  A    between atoms: _206  and  _207
REMARK   86  A    between atoms: _206  and  _209
REMARK   87  A    between atoms: _209  and  _210
REMARK   88  A    between atoms: _213  and  _215
REMARK   89  A    between atoms: _215  and  _216
REMARK   90  A    between atoms: _218  and  _220
REMARK   91  A    between atoms: _220  and  _221
REMARK   92  A    between atoms: _220  and  _223
REMARK   93  A    between atoms: _223  and  _224
REMARK   94  A    between atoms: _224  and  _225
REMARK   95  A    between atoms: _225  and  _226
REMARK   96  A    between atoms: _235  and  _237
REMARK   97  A    between atoms: _237  and  _238
REMARK   98  A    between atoms: _237  and  _240
REMARK   99  A    between atoms: _240  and  _241
REMARK  100  A    between atoms: _246  and  _248
REMARK  101  A    between atoms: _248  and  _249
REMARK  102  A    between atoms: _248  and  _251
REMARK  103  A    between atoms: _251  and  _252
REMARK  104  A    between atoms: _252  and  _253
REMARK  105  A    between atoms: _253  and  _254
REMARK  106  A    between atoms: _263  and  _265
REMARK  107  A    between atoms: _265  and  _266
REMARK  108  A    between atoms: _265  and  _268
REMARK  109  A    between atoms: _268  and  _269
REMARK  110  A    between atoms: _272  and  _274
REMARK  111  A    between atoms: _274  and  _275
REMARK  112  A    between atoms: _274  and  _277
REMARK  113  A    between atoms: _277  and  _278
REMARK  114  A    between atoms: _281  and  _283
REMARK  115  A    between atoms: _283  and  _284
REMARK  116  A    between atoms: _283  and  _286
REMARK  117  A    between atoms: _286  and  _287
REMARK  118  A    between atoms: _290  and  _292
REMARK  119  A    between atoms: _292  and  _293
REMARK  120  A    between atoms: _292  and  _295
REMARK  121  A    between atoms: _295  and  _296
REMARK  122  A    between atoms: _299  and  _301
REMARK  123  A    between atoms: _301  and  _302
REMARK  124  A    between atoms: _304  and  _306
REMARK  125  A    between atoms: _306  and  _307
REMARK  126  A    between atoms: _310  and  _312
REMARK  127  A    between atoms: _312  and  _313
REMARK  128  A    between atoms: _312  and  _315
REMARK  129  A    between atoms: _315  and  _316
REMARK  130  A    between atoms: _319  and  _321
REMARK  131  A    between atoms: _321  and  _322
REMARK  132  A    between atoms: _321  and  _324
REMARK  133  A    between atoms: _324  and  _325
REMARK  134  A    between atoms: _328  and  _330
REMARK  135  A    between atoms: _330  and  _331
REMARK  136  A    between atoms: _330  and  _333
REMARK  137  A    between atoms: _333  and  _334
REMARK  138  A    between atoms: _337  and  _339
REMARK  139  A    between atoms: _339  and  _340
REMARK  140  A    between atoms: _339  and  _342
REMARK  141  A    between atoms: _345  and  _347
REMARK  142  A    between atoms: _347  and  _348
REMARK  143  A    between atoms: _347  and  _350
REMARK  144  A    between atoms: _350  and  _351
REMARK  145  A    between atoms: _351  and  _352
REMARK  146  A    between atoms: _354  and  _356
REMARK  147  A    between atoms: _356  and  _357
REMARK  148  A    between atoms: _356  and  _359
REMARK  149  A    between atoms: _359  and  _360
REMARK  150  A    between atoms: _363  and  _365
REMARK  151  A    between atoms: _365  and  _366
REMARK  152  A    between atoms: _368  and  _370
REMARK  153  A    between atoms: _370  and  _371
REMARK  154  A    between atoms: _373  and  _375
REMARK  155  A    between atoms: _375  and  _376
REMARK  156  A    between atoms: _375  and  _378
REMARK  157  A    between atoms: _378  and  _379
REMARK  158  A    between atoms: _382  and  _384
REMARK  159  A    between atoms: _384  and  _385
REMARK  160  A    between atoms: _387  and  _389
REMARK  161  A    between atoms: _389  and  _390
REMARK  162  A    between atoms: _392  and  _394
REMARK  163  A    between atoms: _394  and  _395
REMARK  164  A    between atoms: _394  and  _397
REMARK  165  A    between atoms: _397  and  _398
REMARK  166  A    between atoms: _404  and  _406
REMARK  167  A    between atoms: _406  and  _407
REMARK  168  A    between atoms: _406  and  _409
REMARK  169  A    between atoms: _409  and  _410
REMARK  170  A    between atoms: _413  and  _415
REMARK  171  A    between atoms: _415  and  _416
REMARK  172  A    between atoms: _415  and  _418
REMARK  173  A    between atoms: _421  and  _423
REMARK  174  A    between atoms: _423  and  _424
REMARK  175  A    between atoms: _423  and  _426
REMARK  176  A    between atoms: _426  and  _427
REMARK  177  A    between atoms: _430  and  _432
REMARK  178  A    between atoms: _432  and  _433
REMARK  179  A    between atoms: _432  and  _435
REMARK  180  A    between atoms: _435  and  _436
REMARK  181  A    between atoms: _440  and  _441
REMARK  182  A    between atoms: _446  and  _448
REMARK  183  A    between atoms: _448  and  _449
REMARK  184  A    between atoms: _448  and  _451
REMARK  185  A    between atoms: _454  and  _456
REMARK  186  A    between atoms: _456  and  _457
REMARK  187  A    between atoms: _456  and  _459
REMARK  188  A    between atoms: _459  and  _460
REMARK  189  A    between atoms: _465  and  _467
REMARK  190  A    between atoms: _467  and  _468
REMARK  191  A    between atoms: _467  and  _470
REMARK  192  A    between atoms: _470  and  _471
REMARK  193  A    between atoms: _474  and  _476
REMARK  194  A    between atoms: _476  and  _477
REMARK  195  A    between atoms: _476  and  _479
REMARK  196  A    between atoms: _479  and  _480
REMARK  197  A    between atoms: _480  and  _481
REMARK  198  A    between atoms: _481  and  _482
REMARK                            x       y       z     vdW  Elec       q    Type
REMARK                         _______ _______ _______ _____ _____    ______ ____
ROOT
ATOM      1  CA  LEU A   1      19.017  -6.238  16.306  0.00  0.00    +0.133 C 
ENDROOT
BRANCH   1   2
ATOM      2  N   LEU A   1      19.274  -5.301  17.401  0.00  0.00    -0.239 NA
ATOM      3  H   LEU A   1      18.588  -4.549  17.612  0.00  0.00    +0.142 HD
ENDBRANCH   1   2
BRANCH   1   4
ATOM      4  C   LEU A   1      19.276  -5.547  14.995  0.00  0.00    +0.224 C 
ATOM      5  O   LEU A   1      18.674  -4.505  14.789  0.00  0.00    -0.287 OA
ENDBRANCH   1   4
BRANCH   1   6
ATOM      6  CB  LEU A   1      17.553  -6.658  16.291  0.00  0.00    +0.025 C 
BRANCH   6   7
ATOM      7  CG  LEU A   1      17.041  -7.743  17.238  0.00  0.00    +0.002 C 
ATOM      8  CD2 LEU A   1      17.919  -8.081  18.439  0.00  0.00    +0.000 C 
ATOM      9  CD1 LEU A   1      15.677  -7.341  17.731  0.00  0.00    +0.000 C 
ENDBRANCH   6   7
ENDBRANCH   1   6
TORSDOF 4
REMARK  Name = ../refined-set-2016/3aid/3aid_pocket.pdb
REMARK  198 active torsions:
REMARK  status: ('A' for Active; 'I' for Inactive)
REMARK    1  A    between atoms: _1  and  _3
REMARK    2  A    between atoms: _3  and  _4
REMARK    3  A    between atoms: _3  and  _6
REMARK    4  A    between atoms: _6  and  _7
REMARK    5  A    between atoms: _7  and  _8
REMARK    6  A    between atoms: _8  and  _9
REMARK    7  A    between atoms: _18  and  _20
REMARK    8  A    between atoms: _20  and  _21
REMARK    9  A    between atoms: _20  and  _23
REMARK   10  A    between atoms: _23  and  _24
REMARK   11  A    between atoms: _27  and  _29
REMARK   12  A    between atoms: _29  and  _30
REMARK   13  A    between atoms: _29  and  _32
REMARK   14  A    between atoms: _32  and  _33
REMARK   15  A    between atoms: _36  and  _38
REMARK   16  A    between atoms: _38  and  _39
REMARK   17  A    between atoms: _38  and  _41
REMARK   18  A    between atoms: _41  and  _42
REMARK   19  A    between atoms: _45  and  _47
REMARK   20  A    between atoms: _47  and  _48
REMARK   21  A    between atoms: _47  and  _50
REMARK   22  A    between atoms: _50  and  _51
REMARK   23  A    between atoms: _54  and  _56
REMARK   24  A    between atoms: _56  and  _57
REMARK   25  A    between atoms: _59  and  _61
REMARK   26  A    between atoms: _61  and  _62
REMARK   27  A    between atoms: _65  and  _67
REMARK   28  A    between atoms: _67  and  _68
REMARK   29  A    between atoms: _67  and  _70
REMARK   30  A    between atoms: _70  and  _71
REMARK   31  A    between atoms: _74  and  _76
REMARK   32  A    between atoms: _76  and  _77
REMARK   33  A    between atoms: _76  and  _79
REMARK   34  A    between atoms: _79  and  _80
REMARK   35  A    between atoms: _83  and  _85
REMARK   36  A    between atoms: _85  and  _86
REMARK   37  A    between atoms: _85  and  _88
REMARK   38  A    between atoms: _88  and  _89
REMARK   39  A    between atoms: _92  and  _94
REMARK   40  A    between atoms: _94  and  _95
REMARK   41  A    between atoms: _94  and  _97
REMARK   42  A    between atoms: _100  and  _102
REMARK   43  A    between atoms: _102  and  _103
REMARK   44  A    between atoms: _102  and  _105
REMARK   45  A    between atoms: _105  and  _106
REMARK   46  A    between atoms: _106  and  _107
REMARK   47  A    between atoms: _107  and  _108
REMARK   48  A    between atoms: _108  and  _109
REMARK   49  A    between atoms: _113  and  _115
REMARK   50  A    between atoms: _115  and  _116
REMARK   51  A    between atoms: _115  and  _118
REMARK   52  A    between atoms: _118  and  _119
REMARK   53  A    between atoms: _122  and  _124
REMARK   54  A    between atoms: _124  and  _125
REMARK   55  A    between atoms: _127  and  _129
REMARK   56  A    between atoms: _129  and  _130
REMARK   57  A    between atoms: _134  and  _135
REMARK   58  A    between atoms: _134  and  _137
REMARK   59  A    between atoms: _137  and  _138
REMARK   60  A    between atoms: _141  and  _143
REMARK   61  A    between atoms: _143  and  _144
REMARK   62  A    between atoms: _146  and  _148
REMARK   63  A    between atoms: _148  and  _149
REMARK   64  A    between atoms: _151  and  _153
REMARK   65  A    between atoms: _153  and  _154
REMARK   66  A    between atoms: _153  and  _156
REMARK   67  A    between atoms: _156  and  _157
REMARK   68  A    between atoms: _160  and  _162
REMARK   69  A    between atoms: _162  and  _163
REMARK   70  A    between atoms: _162  and  _165
REMARK   71  A    between atoms: _165  and  _166
REMARK   72  A    between atoms: _169  and  _171
REMARK   73  A    between atoms: _171  and  _172
REMARK   74  A    between atoms: _171  and  _174
REMARK   75  A    between atoms: _174  and  _175
REMARK   76  A    between atoms: _179  and  _180
REMARK   77  A    between atoms: _185  and  _187
REMARK   78  A    between atoms: _187  and  _188
REMARK   79  A    between atoms: _187  and  _190
REMARK   80  A    between atoms: _193  and  _195
REMARK   81  A    between atoms: _195  and  _196
REMARK   82  A    between atoms: _195  and  _198
REMARK   83  A    between atoms: _198  and  _199
REMARK   84  A    between atoms: _204  and  _206
REMARK   85  A    between atoms: _206  and  _207
REMARK   86  A    between atoms: _206  and  _209
REMARK   87  A    between atoms: _209  and  _210
REMARK   88  A    between atoms: _213  and  _215
REMARK   89  A    between atoms: _215  and  _216
REMARK   90  A    between atoms: _218  and  _220
REMARK   91  A    between atoms: _220  and  _221
REMARK   92  A    between atoms: _220  and  _223
REMARK   93  A    between atoms: _223  and  _224
REMARK   94  A    between atoms: _224  and  _225
REMARK   95  A    between atoms: _225  and  _226
REMARK   96  A    between atoms: _235  and  _237
REMARK   97  A    between atoms: _237  and  _238
REMARK   98  A    between atoms: _237  and  _240
REMARK   99  A    between atoms: _240  and  _241
REMARK  100  A    between atoms: _246  and  _248
REMARK  101  A    between atoms: _248  and  _249
REMARK  102  A    between atoms: _248  and  _251
REMARK  103  A    between atoms: _251  and  _252
REMARK  104  A    between atoms: _252  and  _253
REMARK  105  A    between atoms: _253  and  _254
REMARK  106  A    between atoms: _263  and  _265
REMARK  107  A    between atoms: _265  and  _266
REMARK  108  A    between atoms: _265  and  _268
REMARK  109  A    between atoms: _268  and  _269
REMARK  110  A    between atoms: _272  and  _274
REMARK  111  A    between atoms: _274  and  _275
REMARK  112  A    between atoms: _274  and  _277
REMARK  113  A    between atoms: _277  and  _278
REMARK  114  A    between atoms: _281  and  _283
REMARK  115  A    between atoms: _283  and  _284
REMARK  116  A    between atoms: _283  and  _286
REMARK  117  A    between atoms: _286  and  _287
REMARK  118  A    between atoms: _290  and  _292
REMARK  119  A    between atoms: _292  and  _293
REMARK  120  A    between atoms: _292  and  _295
REMARK  121  A    between atoms: _295  and  _296
REMARK  122  A    between atoms: _299  and  _301
REMARK  123  A    between atoms: _301  and  _302
REMARK  124  A    between atoms: _304  and  _306
REMARK  125  A    between atoms: _306  and  _307
REMARK  126  A    between atoms: _310  and  _312
REMARK  127  A    between atoms: _312  and  _313
REMARK  128  A    between atoms: _312  and  _315
REMARK  129  A    between atoms: _315  and  _316
REMARK  130  A    between atoms: _319  and  _321
REMARK  131  A    between atoms: _321  and  _322
REMARK  132  A    between atoms: _321  and  _324
REMARK  133  A    between atoms: _324  and  _325
REMARK  134  A    between atoms: _328  and  _330
REMARK  135  A    between atoms: _330  and  _331
REMARK  136  A    between atoms: _330  and  _333
REMARK  137  A    between atoms: _333  and  _334
REMARK  138  A    between atoms: _337  and  _339
REMARK  139  A    between atoms: _339  and  _340
REMARK  140  A    between atoms: _339  and  _342
REMARK  141  A    between atoms: _345  and  _347
REMARK  142  A    between atoms: _347  and  _348
REMARK  143  A    between atoms: _347  and  _350
REMARK  144  A    between atoms: _350  and  _351
REMARK  145  A    between atoms: _351  and  _352
REMARK  146  A    between atoms: _354  and  _356
REMARK  147  A    between atoms: _356  and  _357
REMARK  148  A    between atoms: _356  and  _359
REMARK  149  A    between atoms: _359  and  _360
REMARK  150  A    between atoms: _363  and  _365
REMARK  151  A    between atoms: _365  and  _366
REMARK  152  A    between atoms: _368  and  _370
REMARK  153  A    between atoms: _370  and  _371
REMARK  154  A    between atoms: _373  and  _375
REMARK  155  A    between atoms: _375  and  _376
REMARK  156  A    between atoms: _375  and  _378
REMARK  157  A    between atoms: _378  and  _379
REMARK  158  A    between atoms: _382  and  _384
REMARK  159  A    between atoms: _384  and  _385
REMARK  160  A    between atoms: _387  and  _389
REMARK  161  A    between atoms: _389  and  _390
REMARK  162  A    between atoms: _392  and  _394
REMARK  163  A    between atoms: _394  and  _395
REMARK  164  A    between atoms: _394  and  _397
REMARK  165  A    between atoms: _397  and  _398
REMARK  166  A    between atoms: _404  and  _406
REMARK  167  A    between atoms: _406  and  _407
REMARK  168  A    between atoms: _406  and  _409
REMARK  169  A    between atoms: _409  and  _410
REMARK  170  A    between atoms: _413  and  _415
REMARK  171  A    between atoms: _415  and  _416
REMARK  172  A    between atoms: _415  and  _418
REMARK  173  A    between atoms: _421  and  _423
REMARK  174  A    between atoms: _423  and  _424
REMARK  175  A    between atoms: _423  and  _426
REMARK  176  A    between atoms: _426  and  _427
REMARK  177  A    between atoms: _430  and  _432
REMARK  178  A    between atoms: _432  and  _433
REMARK  179  A    between atoms: _432  and  _435
REMARK  180  A    between atoms: _435  and  _436
REMARK  181  A    between atoms: _440  and  _441
REMARK  182  A    between atoms: _446  and  _448
REMARK  183  A    between atoms: _448  and  _449
REMARK  184  A    between atoms: _448  and  _451
REMARK  185  A    between atoms: _454  and  _456
REMARK  186  A    between atoms: _456  and  _457
REMARK  187  A    between atoms: _456  and  _459
REMARK  188  A    between atoms: _459  and  _460
REMARK  189  A    between atoms: _465  and  _467
REMARK  190  A    between atoms: _467  and  _468
REMARK  191  A    between atoms: _467  and  _470
REMARK  192  A    between atoms: _470  and  _471
REMARK  193  A    between atoms: _474  and  _476
REMARK  194  A    between atoms: _476  and  _477
REMARK  195  A    between atoms: _476  and  _479
REMARK  196  A    between atoms: _479  and  _480
REMARK  197  A    between atoms: _480  and  _481
REMARK  198  A    between atoms: _481  and  _482
REMARK                            x       y       z     vdW  Elec       q    Type
REMARK                         _______ _______ _______ _____ _____    ______ ____
ROOT
ATOM      1  CA  VAL A   3      13.561   2.838  10.064  0.00  0.00    +0.149 C 
ENDROOT
BRANCH   1   3
ATOM      2  C   PRO A   2      13.581   2.406   7.662  0.00  0.00    +0.241 C 
ATOM      3  N   VAL A   3      13.446   1.928   8.912  0.00  0.00    -0.297 N 
ATOM      4  H   VAL A   3      13.260   0.916   9.065  0.00  0.00    +0.150 HD
ATOM      5  O   PRO A   2      13.811   3.579   7.400  0.00  0.00    -0.273 OA
BRANCH   2  12
ATOM      6  C   THR A   1      14.497  -0.600   7.557  0.00  0.00    +0.244 C 
ATOM      7  O   THR A   1      15.558   0.016   7.484  0.00  0.00    -0.273 OA
ATOM      8  N   PRO A   2      13.357  -0.063   7.046  0.00  0.00    -0.272 N 
ATOM      9  CD  PRO A   2      12.053  -0.684   6.808  0.00  0.00    +0.094 C 
ATOM     10  CG  PRO A   2      11.143   0.471   6.400  0.00  0.00    +0.024 C 
ATOM     11  CB  PRO A   2      12.105   1.495   5.796  0.00  0.00    +0.031 C 
ATOM     12  CA  PRO A   2      13.412   1.341   6.572  0.00  0.00    +0.152 C 
BRANCH   6  13
ATOM     13  CA  THR A   1      14.414  -1.968   8.250  0.00  0.00    +0.172 C 
BRANCH  13  14
ATOM     14  CB  THR A   1      14.277  -1.755   9.751  0.00  0.00    +0.135 C 
ATOM     15  CG2 THR A   1      15.638  -1.318  10.308  0.00  0.00    +0.034 C 
BRANCH  14  16
ATOM     16  OG1 THR A   1      13.272  -0.766  10.037  0.00  0.00    -0.383 OA
ATOM     17  HG1 THR A   1      13.200  -0.644  11.017  0.00  0.00    +0.210 HD
ENDBRANCH  14  16
ENDBRANCH  13  14
BRANCH  13  18
ATOM     18  N   THR A   1      15.532  -2.889   8.004  0.00  0.00    -0.236 NA
ATOM     19  H   THR A   1      16.395  -2.863   8.583  0.00  0.00    +0.142 HD
ENDBRANCH  13  18
ENDBRANCH   6  13
ENDBRANCH   2  12
ENDBRANCH   1   3
BRANCH   1  20
ATOM     20  C   VAL A   3      14.236   2.271  11.334  0.00  0.00    +0.241 C 
ATOM     21  N   ASN A   4      15.025   3.157  11.932  0.00  0.00    -0.297 N 
ATOM     22  H   ASN A   4      15.184   4.094  11.510  0.00  0.00    +0.150 HD
ATOM     23  O   VAL A   3      14.088   1.127  11.760  0.00  0.00    -0.273 OA
BRANCH  21  24
ATOM     24  CA  ASN A   4      15.666   2.791  13.194  0.00  0.00    +0.158 C 
BRANCH  24  25
ATOM     25  C   ASN A   4      14.749   2.975  14.382  0.00  0.00    +0.241 C 
ATOM     26  N   ILE A   5      14.477   1.868  15.060  0.00  0.00    -0.298 N 
ATOM     27  H   ILE A   5      14.915   0.969  14.776  0.00  0.00    +0.150 HD
ATOM     28  O   ASN A   4      14.326   4.076  14.683  0.00  0.00    -0.273 OA
BRANCH  26  29
ATOM     29  CA  ILE A   5      13.566   1.901  16.204  0.00  0.00    +0.137 C 
BRANCH  29  30
ATOM     30  C   ILE A   5      14.247   1.541  17.523  0.00  0.00    +0.227 C 
ATOM     31  O   ILE A   5      14.832   0.478  17.661  0.00  0.00    -0.286 OA
ENDBRANCH  29  30
BRANCH  29  32
ATOM     32  CB  ILE A   5      12.385   0.935  15.879  0.00  0.00    +0.026 C 
ATOM     33  CG2 ILE A   5      11.566   0.418  17.051  0.00  0.00    +0.002 C 
BRANCH  32  34
ATOM     34  CG1 ILE A   5      11.366   1.514  14.928  0.00  0.00    +0.002 C 
ATOM     35  CD1 ILE A   5      10.834   0.320  14.179  0.00  0.00    +0.000 C 
ENDBRANCH  32  34
ENDBRANCH  29  32
ENDBRANCH  26  29
ENDBRANCH  24  25
BRANCH  24  36
ATOM     36  CB  ASN A   4      16.893   3.665  13.454  0.00  0.00    +0.114 C 
BRANCH  36  37
ATOM     37  CG  ASN A   4      18.006   3.484  12.423  0.00  0.00    +0.222 C 
ATOM     38  ND2 ASN A   4      18.625   4.608  12.090  0.00  0.00    -0.329 N 
ATOM     39 HD21 ASN A   4      18.328   5.510  12.513  0.00  0.00    +0.145 HD
ATOM     40 HD22 ASN A   4      19.408   4.587  11.406  0.00  0.00    +0.145 HD
ATOM     41  OD1 ASN A   4      18.331   2.413  11.945  0.00  0.00    -0.275 OA
ENDBRANCH  36  37
ENDBRANCH  24  36
ENDBRANCH  21  24
ENDBRANCH   1  20
BRANCH   1  42
ATOM     42  CB  VAL A   3      12.166   3.484  10.323  0.00  0.00    +0.027 C 
ATOM     43  CG2 VAL A   3      12.195   4.590  11.382  0.00  0.00    +0.002 C 
ATOM     44  CG1 VAL A   3      11.063   2.448  10.552  0.00  0.00    +0.002 C 
ENDBRANCH   1  42
TORSDOF 16
REMARK  Name = ../refined-set-2016/3aid/3aid_pocket.pdb
REMARK  198 active torsions:
REMARK  status: ('A' for Active; 'I' for Inactive)
REMARK    1  A    between atoms: _1  and  _3
REMARK    2  A    between atoms: _3  and  _4
REMARK    3  A    between atoms: _3  and  _6
REMARK    4  A    between atoms: _6  and  _7
REMARK    5  A    between atoms: _7  and  _8
REMARK    6  A    between atoms: _8  and  _9
REMARK    7  A    between atoms: _18  and  _20
REMARK    8  A    between atoms: _20  and  _21
REMARK    9  A    between atoms: _20  and  _23
REMARK   10  A    between atoms: _23  and  _24
REMARK   11  A    between atoms: _27  and  _29
REMARK   12  A    between atoms: _29  and  _30
REMARK   13  A    between atoms: _29  and  _32
REMARK   14  A    between atoms: _32  and  _33
REMARK   15  A    between atoms: _36  and  _38
REMARK   16  A    between atoms: _38  and  _39
REMARK   17  A    between atoms: _38  and  _41
REMARK   18  A    between atoms: _41  and  _42
REMARK   19  A    between atoms: _45  and  _47
REMARK   20  A    between atoms: _47  and  _48
REMARK   21  A    between atoms: _47  and  _50
REMARK   22  A    between atoms: _50  and  _51
REMARK   23  A    between atoms: _54  and  _56
REMARK   24  A    between atoms: _56  and  _57
REMARK   25  A    between atoms: _59  and  _61
REMARK   26  A    between atoms: _61  and  _62
REMARK   27  A    between atoms: _65  and  _67
REMARK   28  A    between atoms: _67  and  _68
REMARK   29  A    between atoms: _67  and  _70
REMARK   30  A    between atoms: _70  and  _71
REMARK   31  A    between atoms: _74  and  _76
REMARK   32  A    between atoms: _76  and  _77
REMARK   33  A    between atoms: _76  and  _79
REMARK   34  A    between atoms: _79  and  _80
REMARK   35  A    between atoms: _83  and  _85
REMARK   36  A    between atoms: _85  and  _86
REMARK   37  A    between atoms: _85  and  _88
REMARK   38  A    between atoms: _88  and  _89
REMARK   39  A    between atoms: _92  and  _94
REMARK   40  A    between atoms: _94  and  _95
REMARK   41  A    between atoms: _94  and  _97
REMARK   42  A    between atoms: _100  and  _102
REMARK   43  A    between atoms: _102  and  _103
REMARK   44  A    between atoms: _102  and  _105
REMARK   45  A    between atoms: _105  and  _106
REMARK   46  A    between atoms: _106  and  _107
REMARK   47  A    between atoms: _107  and  _108
REMARK   48  A    between atoms: _108  and  _109
REMARK   49  A    between atoms: _113  and  _115
REMARK   50  A    between atoms: _115  and  _116
REMARK   51  A    between atoms: _115  and  _118
REMARK   52  A    between atoms: _118  and  _119
REMARK   53  A    between atoms: _122  and  _124
REMARK   54  A    between atoms: _124  and  _125
REMARK   55  A    between atoms: _127  and  _129
REMARK   56  A    between atoms: _129  and  _130
REMARK   57  A    between atoms: _134  and  _135
REMARK   58  A    between atoms: _134  and  _137
REMARK   59  A    between atoms: _137  and  _138
REMARK   60  A    between atoms: _141  and  _143
REMARK   61  A    between atoms: _143  and  _144
REMARK   62  A    between atoms: _146  and  _148
REMARK   63  A    between atoms: _148  and  _149
REMARK   64  A    between atoms: _151  and  _153
REMARK   65  A    between atoms: _153  and  _154
REMARK   66  A    between atoms: _153  and  _156
REMARK   67  A    between atoms: _156  and  _157
REMARK   68  A    between atoms: _160  and  _162
REMARK   69  A    between atoms: _162  and  _163
REMARK   70  A    between atoms: _162  and  _165
REMARK   71  A    between atoms: _165  and  _166
REMARK   72  A    between atoms: _169  and  _171
REMARK   73  A    between atoms: _171  and  _172
REMARK   74  A    between atoms: _171  and  _174
REMARK   75  A    between atoms: _174  and  _175
REMARK   76  A    between atoms: _179  and  _180
REMARK   77  A    between atoms: _185  and  _187
REMARK   78  A    between atoms: _187  and  _188
REMARK   79  A    between atoms: _187  and  _190
REMARK   80  A    between atoms: _193  and  _195
REMARK   81  A    between atoms: _195  and  _196
REMARK   82  A    between atoms: _195  and  _198
REMARK   83  A    between atoms: _198  and  _199
REMARK   84  A    between atoms: _204  and  _206
REMARK   85  A    between atoms: _206  and  _207
REMARK   86  A    between atoms: _206  and  _209
REMARK   87  A    between atoms: _209  and  _210
REMARK   88  A    between atoms: _213  and  _215
REMARK   89  A    between atoms: _215  and  _216
REMARK   90  A    between atoms: _218  and  _220
REMARK   91  A    between atoms: _220  and  _221
REMARK   92  A    between atoms: _220  and  _223
REMARK   93  A    between atoms: _223  and  _224
REMARK   94  A    between atoms: _224  and  _225
REMARK   95  A    between atoms: _225  and  _226
REMARK   96  A    between atoms: _235  and  _237
REMARK   97  A    between atoms: _237  and  _238
REMARK   98  A    between atoms: _237  and  _240
REMARK   99  A    between atoms: _240  and  _241
REMARK  100  A    between atoms: _246  and  _248
REMARK  101  A    between atoms: _248  and  _249
REMARK  102  A    between atoms: _248  and  _251
REMARK  103  A    between atoms: _251  and  _252
REMARK  104  A    between atoms: _252  and  _253
REMARK  105  A    between atoms: _253  and  _254
REMARK  106  A    between atoms: _263  and  _265
REMARK  107  A    between atoms: _265  and  _266
REMARK  108  A    between atoms: _265  and  _268
REMARK  109  A    between atoms: _268  and  _269
REMARK  110  A    between atoms: _272  and  _274
REMARK  111  A    between atoms: _274  and  _275
REMARK  112  A    between atoms: _274  and  _277
REMARK  113  A    between atoms: _277  and  _278
REMARK  114  A    between atoms: _281  and  _283
REMARK  115  A    between atoms: _283  and  _284
REMARK  116  A    between atoms: _283  and  _286
REMARK  117  A    between atoms: _286  and  _287
REMARK  118  A    between atoms: _290  and  _292
REMARK  119  A    between atoms: _292  and  _293
REMARK  120  A    between atoms: _292  and  _295
REMARK  121  A    between atoms: _295  and  _296
REMARK  122  A    between atoms: _299  and  _301
REMARK  123  A    between atoms: _301  and  _302
REMARK  124  A    between atoms: _304  and  _306
REMARK  125  A    between atoms: _306  and  _307
REMARK  126  A    between atoms: _310  and  _312
REMARK  127  A    between atoms: _312  and  _313
REMARK  128  A    between atoms: _312  and  _315
REMARK  129  A    between atoms: _315  and  _316
REMARK  130  A    between atoms: _319  and  _321
REMARK  131  A    between atoms: _321  and  _322
REMARK  132  A    between atoms: _321  and  _324
REMARK  133  A    between atoms: _324  and  _325
REMARK  134  A    between atoms: _328  and  _330
REMARK  135  A    between atoms: _330  and  _331
REMARK  136  A    between atoms: _330  and  _333
REMARK  137  A    between atoms: _333  and  _334
REMARK  138  A    between atoms: _337  and  _339
REMARK  139  A    between atoms: _339  and  _340
REMARK  140  A    between atoms: _339  and  _342
REMARK  141  A    between atoms: _345  and  _347
REMARK  142  A    between atoms: _347  and  _348
REMARK  143  A    between atoms: _347  and  _350
REMARK  144  A    between atoms: _350  and  _351
REMARK  145  A    between atoms: _351  and  _352
REMARK  146  A    between atoms: _354  and  _356
REMARK  147  A    between atoms: _356  and  _357
REMARK  148  A    between atoms: _356  and  _359
REMARK  149  A    between atoms: _359  and  _360
REMARK  150  A    between atoms: _363  and  _365
REMARK  151  A    between atoms: _365  and  _366
REMARK  152  A    between atoms: _368  and  _370
REMARK  153  A    between atoms: _370  and  _371
REMARK  154  A    between atoms: _373  and  _375
REMARK  155  A    between atoms: _375  and  _376
REMARK  156  A    between atoms: _375  and  _378
REMARK  157  A    between atoms: _378  and  _379
REMARK  158  A    between atoms: _382  and  _384
REMARK  159  A    between atoms: _384  and  _385
REMARK  160  A    between atoms: _387  and  _389
REMARK  161  A    between atoms: _389  and  _390
REMARK  162  A    between atoms: _392  and  _394
REMARK  163  A    between atoms: _394  and  _395
REMARK  164  A    between atoms: _394  and  _397
REMARK  165  A    between atoms: _397  and  _398
REMARK  166  A    between atoms: _404  and  _406
REMARK  167  A    between atoms: _406  and  _407
REMARK  168  A    between atoms: _406  and  _409
REMARK  169  A    between atoms: _409  and  _410
REMARK  170  A    between atoms: _413  and  _415
REMARK  171  A    between atoms: _415  and  _416
REMARK  172  A    between atoms: _415  and  _418
REMARK  173  A    between atoms: _421  and  _423
REMARK  174  A    between atoms: _423  and  _424
REMARK  175  A    between atoms: _423  and  _426
REMARK  176  A    between atoms: _426  and  _427
REMARK  177  A    between atoms: _430  and  _432
REMARK  178  A    between atoms: _432  and  _433
REMARK  179  A    between atoms: _432  and  _435
REMARK  180  A    between atoms: _435  and  _436
REMARK  181  A    between atoms: _440  and  _441
REMARK  182  A    between atoms: _446  and  _448
REMARK  183  A    between atoms: _448  and  _449
REMARK  184  A    between atoms: _448  and  _451
REMARK  185  A    between atoms: _454  and  _456
REMARK  186  A    between atoms: _456  and  _457
REMARK  187  A    between atoms: _456  and  _459
REMARK  188  A    between atoms: _459  and  _460
REMARK  189  A    between atoms: _465  and  _467
REMARK  190  A    between atoms: _467  and  _468
REMARK  191  A    between atoms: _467  and  _470
REMARK  192  A    between atoms: _470  and  _471
REMARK  193  A    between atoms: _474  and  _476
REMARK  194  A    between atoms: _476  and  _477
REMARK  195  A    between atoms: _476  and  _479
REMARK  196  A    between atoms: _479  and  _480
REMARK  197  A    between atoms: _480  and  _481
REMARK  198  A    between atoms: _481  and  _482
REMARK                            x       y       z     vdW  Elec       q    Type
REMARK                         _______ _______ _______ _____ _____    ______ ____
ROOT
ATOM      1  NE  ARG A   1       7.774  -2.654  26.794  0.00  0.00    -0.265 N 
ATOM      2  HE  ARG A   1       7.425  -2.104  27.605  0.00  0.00    +0.259 HD
ATOM      3  CZ  ARG A   1       8.189  -3.922  26.991  0.00  0.00    +0.342 C 
ATOM      4  NH2 ARG A   1       8.637  -4.237  28.197  0.00  0.00    -0.292 N 
ATOM      5 HH21 ARG A   1       8.659  -3.518  28.948  0.00  0.00    +0.255 HD
ATOM      6 HH22 ARG A   1       8.967  -5.204  28.393  0.00  0.00    +0.255 HD
ATOM      7  NH1 ARG A   1       8.179  -4.849  26.041  0.00  0.00    -0.292 N 
ATOM      8 HH11 ARG A   1       8.511  -5.812  26.251  0.00  0.00    +0.255 HD
ATOM      9 HH12 ARG A   1       7.839  -4.612  25.087  0.00  0.00    +0.255 HD
ENDROOT
BRANCH   1  10
ATOM     10  CD  ARG A   1       7.801  -2.039  25.487  0.00  0.00    +0.174 C 
BRANCH  10  11
ATOM     11  CG  ARG A   1       8.917  -0.959  25.491  0.00  0.00    +0.045 C 
BRANCH  11  12
ATOM     12  CB  ARG A   1      10.290  -1.528  25.906  0.00  0.00    +0.029 C 
BRANCH  12  13
ATOM     13  CA  ARG A   1      11.510  -0.755  25.479  0.00  0.00    +0.133 C 
BRANCH  13  14
ATOM     14  N   ARG A   1      11.557  -0.749  24.017  0.00  0.00    -0.239 NA
ATOM     15  H   ARG A   1      10.785  -1.206  23.492  0.00  0.00    +0.142 HD
ENDBRANCH  13  14
BRANCH  13  16
ATOM     16  C   ARG A   1      12.725  -1.248  26.266  0.00  0.00    +0.224 C 
ATOM     17  O   ARG A   1      12.956  -0.806  27.381  0.00  0.00    -0.287 OA
ENDBRANCH  13  16
ENDBRANCH  12  13
ENDBRANCH  11  12
ENDBRANCH  10  11
ENDBRANCH   1  10
TORSDOF 6
REMARK  Name = ../refined-set-2016/3aid/3aid_pocket.pdb
REMARK  198 active torsions:
REMARK  status: ('A' for Active; 'I' for Inactive)
REMARK    1  A    between atoms: _1  and  _3
REMARK    2  A    between atoms: _3  and  _4
REMARK    3  A    between atoms: _3  and  _6
REMARK    4  A    between atoms: _6  and  _7
REMARK    5  A    between atoms: _7  and  _8
REMARK    6  A    between atoms: _8  and  _9
REMARK    7  A    between atoms: _18  and  _20
REMARK    8  A    between atoms: _20  and  _21
REMARK    9  A    between atoms: _20  and  _23
REMARK   10  A    between atoms: _23  and  _24
REMARK   11  A    between atoms: _27  and  _29
REMARK   12  A    between atoms: _29  and  _30
REMARK   13  A    between atoms: _29  and  _32
REMARK   14  A    between atoms: _32  and  _33
REMARK   15  A    between atoms: _36  and  _38
REMARK   16  A    between atoms: _38  and  _39
REMARK   17  A    between atoms: _38  and  _41
REMARK   18  A    between atoms: _41  and  _42
REMARK   19  A    between atoms: _45  and  _47
REMARK   20  A    between atoms: _47  and  _48
REMARK   21  A    between atoms: _47  and  _50
REMARK   22  A    between atoms: _50  and  _51
REMARK   23  A    between atoms: _54  and  _56
REMARK   24  A    between atoms: _56  and  _57
REMARK   25  A    between atoms: _59  and  _61
REMARK   26  A    between atoms: _61  and  _62
REMARK   27  A    between atoms: _65  and  _67
REMARK   28  A    between atoms: _67  and  _68
REMARK   29  A    between atoms: _67  and  _70
REMARK   30  A    between atoms: _70  and  _71
REMARK   31  A    between atoms: _74  and  _76
REMARK   32  A    between atoms: _76  and  _77
REMARK   33  A    between atoms: _76  and  _79
REMARK   34  A    between atoms: _79  and  _80
REMARK   35  A    between atoms: _83  and  _85
REMARK   36  A    between atoms: _85  and  _86
REMARK   37  A    between atoms: _85  and  _88
REMARK   38  A    between atoms: _88  and  _89
REMARK   39  A    between atoms: _92  and  _94
REMARK   40  A    between atoms: _94  and  _95
REMARK   41  A    between atoms: _94  and  _97
REMARK   42  A    between atoms: _100  and  _102
REMARK   43  A    between atoms: _102  and  _103
REMARK   44  A    between atoms: _102  and  _105
REMARK   45  A    between atoms: _105  and  _106
REMARK   46  A    between atoms: _106  and  _107
REMARK   47  A    between atoms: _107  and  _108
REMARK   48  A    between atoms: _108  and  _109
REMARK   49  A    between atoms: _113  and  _115
REMARK   50  A    between atoms: _115  and  _116
REMARK   51  A    between atoms: _115  and  _118
REMARK   52  A    between atoms: _118  and  _119
REMARK   53  A    between atoms: _122  and  _124
REMARK   54  A    between atoms: _124  and  _125
REMARK   55  A    between atoms: _127  and  _129
REMARK   56  A    between atoms: _129  and  _130
REMARK   57  A    between atoms: _134  and  _135
REMARK   58  A    between atoms: _134  and  _137
REMARK   59  A    between atoms: _137  and  _138
REMARK   60  A    between atoms: _141  and  _143
REMARK   61  A    between atoms: _143  and  _144
REMARK   62  A    between atoms: _146  and  _148
REMARK   63  A    between atoms: _148  and  _149
REMARK   64  A    between atoms: _151  and  _153
REMARK   65  A    between atoms: _153  and  _154
REMARK   66  A    between atoms: _153  and  _156
REMARK   67  A    between atoms: _156  and  _157
REMARK   68  A    between atoms: _160  and  _162
REMARK   69  A    between atoms: _162  and  _163
REMARK   70  A    between atoms: _162  and  _165
REMARK   71  A    between atoms: _165  and  _166
REMARK   72  A    between atoms: _169  and  _171
REMARK   73  A    between atoms: _171  and  _172
REMARK   74  A    between atoms: _171  and  _174
REMARK   75  A    between atoms: _174  and  _175
REMARK   76  A    between atoms: _179  and  _180
REMARK   77  A    between atoms: _185  and  _187
REMARK   78  A    between atoms: _187  and  _188
REMARK   79  A    between atoms: _187  and  _190
REMARK   80  A    between atoms: _193  and  _195
REMARK   81  A    between atoms: _195  and  _196
REMARK   82  A    between atoms: _195  and  _198
REMARK   83  A    between atoms: _198  and  _199
REMARK   84  A    between atoms: _204  and  _206
REMARK   85  A    between atoms: _206  and  _207
REMARK   86  A    between atoms: _206  and  _209
REMARK   87  A    between atoms: _209  and  _210
REMARK   88  A    between atoms: _213  and  _215
REMARK   89  A    between atoms: _215  and  _216
REMARK   90  A    between atoms: _218  and  _220
REMARK   91  A    between atoms: _220  and  _221
REMARK   92  A    between atoms: _220  and  _223
REMARK   93  A    between atoms: _223  and  _224
REMARK   94  A    between atoms: _224  and  _225
REMARK   95  A    between atoms: _225  and  _226
REMARK   96  A    between atoms: _235  and  _237
REMARK   97  A    between atoms: _237  and  _238
REMARK   98  A    between atoms: _237  and  _240
REMARK   99  A    between atoms: _240  and  _241
REMARK  100  A    between atoms: _246  and  _248
REMARK  101  A    between atoms: _248  and  _249
REMARK  102  A    between atoms: _248  and  _251
REMARK  103  A    between atoms: _251  and  _252
REMARK  104  A    between atoms: _252  and  _253
REMARK  105  A    between atoms: _253  and  _254
REMARK  106  A    between atoms: _263  and  _265
REMARK  107  A    between atoms: _265  and  _266
REMARK  108  A    between atoms: _265  and  _268
REMARK  109  A    between atoms: _268  and  _269
REMARK  110  A    between atoms: _272  and  _274
REMARK  111  A    between atoms: _274  and  _275
REMARK  112  A    between atoms: _274  and  _277
REMARK  113  A    between atoms: _277  and  _278
REMARK  114  A    between atoms: _281  and  _283
REMARK  115  A    between atoms: _283  and  _284
REMARK  116  A    between atoms: _283  and  _286
REMARK  117  A    between atoms: _286  and  _287
REMARK  118  A    between atoms: _290  and  _292
REMARK  119  A    between atoms: _292  and  _293
REMARK  120  A    between atoms: _292  and  _295
REMARK  121  A    between atoms: _295  and  _296
REMARK  122  A    between atoms: _299  and  _301
REMARK  123  A    between atoms: _301  and  _302
REMARK  124  A    between atoms: _304  and  _306
REMARK  125  A    between atoms: _306  and  _307
REMARK  126  A    between atoms: _310  and  _312
REMARK  127  A    between atoms: _312  and  _313
REMARK  128  A    between atoms: _312  and  _315
REMARK  129  A    between atoms: _315  and  _316
REMARK  130  A    between atoms: _319  and  _321
REMARK  131  A    between atoms: _321  and  _322
REMARK  132  A    between atoms: _321  and  _324
REMARK  133  A    between atoms: _324  and  _325
REMARK  134  A    between atoms: _328  and  _330
REMARK  135  A    between atoms: _330  and  _331
REMARK  136  A    between atoms: _330  and  _333
REMARK  137  A    between atoms: _333  and  _334
REMARK  138  A    between atoms: _337  and  _339
REMARK  139  A    between atoms: _339  and  _340
REMARK  140  A    between atoms: _339  and  _342
REMARK  141  A    between atoms: _345  and  _347
REMARK  142  A    between atoms: _347  and  _348
REMARK  143  A    between atoms: _347  and  _350
REMARK  144  A    between atoms: _350  and  _351
REMARK  145  A    between atoms: _351  and  _352
REMARK  146  A    between atoms: _354  and  _356
REMARK  147  A    between atoms: _356  and  _357
REMARK  148  A    between atoms: _356  and  _359
REMARK  149  A    between atoms: _359  and  _360
REMARK  150  A    between atoms: _363  and  _365
REMARK  151  A    between atoms: _365  and  _366
REMARK  152  A    between atoms: _368  and  _370
REMARK  153  A    between atoms: _370  and  _371
REMARK  154  A    between atoms: _373  and  _375
REMARK  155  A    between atoms: _375  and  _376
REMARK  156  A    between atoms: _375  and  _378
REMARK  157  A    between atoms: _378  and  _379
REMARK  158  A    between atoms: _382  and  _384
REMARK  159  A    between atoms: _384  and  _385
REMARK  160  A    between atoms: _387  and  _389
REMARK  161  A    between atoms: _389  and  _390
REMARK  162  A    between atoms: _392  and  _394
REMARK  163  A    between atoms: _394  and  _395
REMARK  164  A    between atoms: _394  and  _397
REMARK  165  A    between atoms: _397  and  _398
REMARK  166  A    between atoms: _404  and  _406
REMARK  167  A    between atoms: _406  and  _407
REMARK  168  A    between atoms: _406  and  _409
REMARK  169  A    between atoms: _409  and  _410
REMARK  170  A    between atoms: _413  and  _415
REMARK  171  A    between atoms: _415  and  _416
REMARK  172  A    between atoms: _415  and  _418
REMARK  173  A    between atoms: _421  and  _423
REMARK  174  A    between atoms: _423  and  _424
REMARK  175  A    between atoms: _423  and  _426
REMARK  176  A    between atoms: _426  and  _427
REMARK  177  A    between atoms: _430  and  _432
REMARK  178  A    between atoms: _432  and  _433
REMARK  179  A    between atoms: _432  and  _435
REMARK  180  A    between atoms: _435  and  _436
REMARK  181  A    between atoms: _440  and  _441
REMARK  182  A    between atoms: _446  and  _448
REMARK  183  A    between atoms: _448  and  _449
REMARK  184  A    between atoms: _448  and  _451
REMARK  185  A    between atoms: _454  and  _456
REMARK  186  A    between atoms: _456  and  _457
REMARK  187  A    between atoms: _456  and  _459
REMARK  188  A    between atoms: _459  and  _460
REMARK  189  A    between atoms: _465  and  _467
REMARK  190  A    between atoms: _467  and  _468
REMARK  191  A    between atoms: _467  and  _470
REMARK  192  A    between atoms: _470  and  _471
REMARK  193  A    between atoms: _474  and  _476
REMARK  194  A    between atoms: _476  and  _477
REMARK  195  A    between atoms: _476  and  _479
REMARK  196  A    between atoms: _479  and  _480
REMARK  197  A    between atoms: _480  and  _481
REMARK  198  A    between atoms: _481  and  _482
REMARK                            x       y       z     vdW  Elec       q    Type
REMARK                         _______ _______ _______ _____ _____    ______ ____
ROOT
ATOM      1  O   HOH     1       5.120  -2.430  11.475  0.00  0.00    +0.000 OA
ENDROOT
TORSDOF 0
REMARK  Name = ../refined-set-2016/3aid/3aid_pocket.pdb
REMARK  198 active torsions:
REMARK  status: ('A' for Active; 'I' for Inactive)
REMARK    1  A    between atoms: _1  and  _3
REMARK    2  A    between atoms: _3  and  _4
REMARK    3  A    between atoms: _3  and  _6
REMARK    4  A    between atoms: _6  and  _7
REMARK    5  A    between atoms: _7  and  _8
REMARK    6  A    between atoms: _8  and  _9
REMARK    7  A    between atoms: _18  and  _20
REMARK    8  A    between atoms: _20  and  _21
REMARK    9  A    between atoms: _20  and  _23
REMARK   10  A    between atoms: _23  and  _24
REMARK   11  A    between atoms: _27  and  _29
REMARK   12  A    between atoms: _29  and  _30
REMARK   13  A    between atoms: _29  and  _32
REMARK   14  A    between atoms: _32  and  _33
REMARK   15  A    between atoms: _36  and  _38
REMARK   16  A    between atoms: _38  and  _39
REMARK   17  A    between atoms: _38  and  _41
REMARK   18  A    between atoms: _41  and  _42
REMARK   19  A    between atoms: _45  and  _47
REMARK   20  A    between atoms: _47  and  _48
REMARK   21  A    between atoms: _47  and  _50
REMARK   22  A    between atoms: _50  and  _51
REMARK   23  A    between atoms: _54  and  _56
REMARK   24  A    between atoms: _56  and  _57
REMARK   25  A    between atoms: _59  and  _61
REMARK   26  A    between atoms: _61  and  _62
REMARK   27  A    between atoms: _65  and  _67
REMARK   28  A    between atoms: _67  and  _68
REMARK   29  A    between atoms: _67  and  _70
REMARK   30  A    between atoms: _70  and  _71
REMARK   31  A    between atoms: _74  and  _76
REMARK   32  A    between atoms: _76  and  _77
REMARK   33  A    between atoms: _76  and  _79
REMARK   34  A    between atoms: _79  and  _80
REMARK   35  A    between atoms: _83  and  _85
REMARK   36  A    between atoms: _85  and  _86
REMARK   37  A    between atoms: _85  and  _88
REMARK   38  A    between atoms: _88  and  _89
REMARK   39  A    between atoms: _92  and  _94
REMARK   40  A    between atoms: _94  and  _95
REMARK   41  A    between atoms: _94  and  _97
REMARK   42  A    between atoms: _100  and  _102
REMARK   43  A    between atoms: _102  and  _103
REMARK   44  A    between atoms: _102  and  _105
REMARK   45  A    between atoms: _105  and  _106
REMARK   46  A    between atoms: _106  and  _107
REMARK   47  A    between atoms: _107  and  _108
REMARK   48  A    between atoms: _108  and  _109
REMARK   49  A    between atoms: _113  and  _115
REMARK   50  A    between atoms: _115  and  _116
REMARK   51  A    between atoms: _115  and  _118
REMARK   52  A    between atoms: _118  and  _119
REMARK   53  A    between atoms: _122  and  _124
REMARK   54  A    between atoms: _124  and  _125
REMARK   55  A    between atoms: _127  and  _129
REMARK   56  A    between atoms: _129  and  _130
REMARK   57  A    between atoms: _134  and  _135
REMARK   58  A    between atoms: _134  and  _137
REMARK   59  A    between atoms: _137  and  _138
REMARK   60  A    between atoms: _141  and  _143
REMARK   61  A    between atoms: _143  and  _144
REMARK   62  A    between atoms: _146  and  _148
REMARK   63  A    between atoms: _148  and  _149
REMARK   64  A    between atoms: _151  and  _153
REMARK   65  A    between atoms: _153  and  _154
REMARK   66  A    between atoms: _153  and  _156
REMARK   67  A    between atoms: _156  and  _157
REMARK   68  A    between atoms: _160  and  _162
REMARK   69  A    between atoms: _162  and  _163
REMARK   70  A    between atoms: _162  and  _165
REMARK   71  A    between atoms: _165  and  _166
REMARK   72  A    between atoms: _169  and  _171
REMARK   73  A    between atoms: _171  and  _172
REMARK   74  A    between atoms: _171  and  _174
REMARK   75  A    between atoms: _174  and  _175
REMARK   76  A    between atoms: _179  and  _180
REMARK   77  A    between atoms: _185  and  _187
REMARK   78  A    between atoms: _187  and  _188
REMARK   79  A    between atoms: _187  and  _190
REMARK   80  A    between atoms: _193  and  _195
REMARK   81  A    between atoms: _195  and  _196
REMARK   82  A    between atoms: _195  and  _198
REMARK   83  A    between atoms: _198  and  _199
REMARK   84  A    between atoms: _204  and  _206
REMARK   85  A    between atoms: _206  and  _207
REMARK   86  A    between atoms: _206  and  _209
REMARK   87  A    between atoms: _209  and  _210
REMARK   88  A    between atoms: _213  and  _215
REMARK   89  A    between atoms: _215  and  _216
REMARK   90  A    between atoms: _218  and  _220
REMARK   91  A    between atoms: _220  and  _221
REMARK   92  A    between atoms: _220  and  _223
REMARK   93  A    between atoms: _223  and  _224
REMARK   94  A    between atoms: _224  and  _225
REMARK   95  A    between atoms: _225  and  _226
REMARK   96  A    between atoms: _235  and  _237
REMARK   97  A    between atoms: _237  and  _238
REMARK   98  A    between atoms: _237  and  _240
REMARK   99  A    between atoms: _240  and  _241
REMARK  100  A    between atoms: _246  and  _248
REMARK  101  A    between atoms: _248  and  _249
REMARK  102  A    between atoms: _248  and  _251
REMARK  103  A    between atoms: _251  and  _252
REMARK  104  A    between atoms: _252  and  _253
REMARK  105  A    between atoms: _253  and  _254
REMARK  106  A    between atoms: _263  and  _265
REMARK  107  A    between atoms: _265  and  _266
REMARK  108  A    between atoms: _265  and  _268
REMARK  109  A    between atoms: _268  and  _269
REMARK  110  A    between atoms: _272  and  _274
REMARK  111  A    between atoms: _274  and  _275
REMARK  112  A    between atoms: _274  and  _277
REMARK  113  A    between atoms: _277  and  _278
REMARK  114  A    between atoms: _281  and  _283
REMARK  115  A    between atoms: _283  and  _284
REMARK  116  A    between atoms: _283  and  _286
REMARK  117  A    between atoms: _286  and  _287
REMARK  118  A    between atoms: _290  and  _292
REMARK  119  A    between atoms: _292  and  _293
REMARK  120  A    between atoms: _292  and  _295
REMARK  121  A    between atoms: _295  and  _296
REMARK  122  A    between atoms: _299  and  _301
REMARK  123  A    between atoms: _301  and  _302
REMARK  124  A    between atoms: _304  and  _306
REMARK  125  A    between atoms: _306  and  _307
REMARK  126  A    between atoms: _310  and  _312
REMARK  127  A    between atoms: _312  and  _313
REMARK  128  A    between atoms: _312  and  _315
REMARK  129  A    between atoms: _315  and  _316
REMARK  130  A    between atoms: _319  and  _321
REMARK  131  A    between atoms: _321  and  _322
REMARK  132  A    between atoms: _321  and  _324
REMARK  133  A    between atoms: _324  and  _325
REMARK  134  A    between atoms: _328  and  _330
REMARK  135  A    between atoms: _330  and  _331
REMARK  136  A    between atoms: _330  and  _333
REMARK  137  A    between atoms: _333  and  _334
REMARK  138  A    between atoms: _337  and  _339
REMARK  139  A    between atoms: _339  and  _340
REMARK  140  A    between atoms: _339  and  _342
REMARK  141  A    between atoms: _345  and  _347
REMARK  142  A    between atoms: _347  and  _348
REMARK  143  A    between atoms: _347  and  _350
REMARK  144  A    between atoms: _350  and  _351
REMARK  145  A    between atoms: _351  and  _352
REMARK  146  A    between atoms: _354  and  _356
REMARK  147  A    between atoms: _356  and  _357
REMARK  148  A    between atoms: _356  and  _359
REMARK  149  A    between atoms: _359  and  _360
REMARK  150  A    between atoms: _363  and  _365
REMARK  151  A    between atoms: _365  and  _366
REMARK  152  A    between atoms: _368  and  _370
REMARK  153  A    between atoms: _370  and  _371
REMARK  154  A    between atoms: _373  and  _375
REMARK  155  A    between atoms: _375  and  _376
REMARK  156  A    between atoms: _375  and  _378
REMARK  157  A    between atoms: _378  and  _379
REMARK  158  A    between atoms: _382  and  _384
REMARK  159  A    between atoms: _384  and  _385
REMARK  160  A    between atoms: _387  and  _389
REMARK  161  A    between atoms: _389  and  _390
REMARK  162  A    between atoms: _392  and  _394
REMARK  163  A    between atoms: _394  and  _395
REMARK  164  A    between atoms: _394  and  _397
REMARK  165  A    between atoms: _397  and  _398
REMARK  166  A    between atoms: _404  and  _406
REMARK  167  A    between atoms: _406  and  _407
REMARK  168  A    between atoms: _406  and  _409
REMARK  169  A    between atoms: _409  and  _410
REMARK  170  A    between atoms: _413  and  _415
REMARK  171  A    between atoms: _415  and  _416
REMARK  172  A    between atoms: _415  and  _418
REMARK  173  A    between atoms: _421  and  _423
REMARK  174  A    between atoms: _423  and  _424
REMARK  175  A    between atoms: _423  and  _426
REMARK  176  A    between atoms: _426  and  _427
REMARK  177  A    between atoms: _430  and  _432
REMARK  178  A    between atoms: _432  and  _433
REMARK  179  A    between atoms: _432  and  _435
REMARK  180  A    between atoms: _435  and  _436
REMARK  181  A    between atoms: _440  and  _441
REMARK  182  A    between atoms: _446  and  _448
REMARK  183  A    between atoms: _448  and  _449
REMARK  184  A    between atoms: _448  and  _451
REMARK  185  A    between atoms: _454  and  _456
REMARK  186  A    between atoms: _456  and  _457
REMARK  187  A    between atoms: _456  and  _459
REMARK  188  A    between atoms: _459  and  _460
REMARK  189  A    between atoms: _465  and  _467
REMARK  190  A    between atoms: _467  and  _468
REMARK  191  A    between atoms: _467  and  _470
REMARK  192  A    between atoms: _470  and  _471
REMARK  193  A    between atoms: _474  and  _476
REMARK  194  A    between atoms: _476  and  _477
REMARK  195  A    between atoms: _476  and  _479
REMARK  196  A    between atoms: _479  and  _480
REMARK  197  A    between atoms: _480  and  _481
REMARK  198  A    between atoms: _481  and  _482
REMARK                            x       y       z     vdW  Elec       q    Type
REMARK                         _______ _______ _______ _____ _____    ______ ____
ROOT
ATOM      1  O   HOH     1       8.333  -4.450  17.823  0.00  0.00    +0.000 OA
ENDROOT
TORSDOF 0
