REMARK  Name = ../refined-set-2016/4ih3/4ih3_pocket.pdb
REMARK  155 active torsions:
REMARK  status: ('A' for Active; 'I' for Inactive)
REMARK    1  A    between atoms: _1  and  _3
REMARK    2  A    between atoms: _14  and  _17
REMARK    3  A    between atoms: _17  and  _18
REMARK    4  A    between atoms: _22  and  _23
REMARK    5  A    between atoms: _31  and  _33
REMARK    6  A    between atoms: _33  and  _34
REMARK    7  A    between atoms: _33  and  _36
REMARK    8  A    between atoms: _36  and  _37
REMARK    9  A    between atoms: _40  and  _42
REMARK   10  A    between atoms: _42  and  _43
REMARK   11  A    between atoms: _42  and  _45
REMARK   12  A    between atoms: _45  and  _46
REMARK   13  A    between atoms: _52  and  _54
REMARK   14  A    between atoms: _54  and  _55
REMARK   15  A    between atoms: _54  and  _57
REMARK   16  A    between atoms: _57  and  _58
REMARK   17  A    between atoms: _58  and  _59
REMARK   18  A    between atoms: _59  and  _60
REMARK   19  A    between atoms: _69  and  _71
REMARK   20  A    between atoms: _71  and  _72
REMARK   21  A    between atoms: _71  and  _74
REMARK   22  A    between atoms: _74  and  _75
REMARK   23  A    between atoms: _77  and  _79
REMARK   24  A    between atoms: _79  and  _80
REMARK   25  A    between atoms: _79  and  _82
REMARK   26  A    between atoms: _82  and  _83
REMARK   27  A    between atoms: _86  and  _88
REMARK   28  A    between atoms: _88  and  _89
REMARK   29  A    between atoms: _88  and  _91
REMARK   30  A    between atoms: _95  and  _96
REMARK   31  A    between atoms: _101  and  _103
REMARK   32  A    between atoms: _103  and  _104
REMARK   33  A    between atoms: _103  and  _106
REMARK   34  A    between atoms: _109  and  _111
REMARK   35  A    between atoms: _111  and  _112
REMARK   36  A    between atoms: _111  and  _114
REMARK   37  A    between atoms: _114  and  _115
REMARK   38  A    between atoms: _115  and  _116
REMARK   39  A    between atoms: _118  and  _120
REMARK   40  A    between atoms: _120  and  _121
REMARK   41  A    between atoms: _120  and  _123
REMARK   42  A    between atoms: _123  and  _124
REMARK   43  A    between atoms: _130  and  _132
REMARK   44  A    between atoms: _132  and  _133
REMARK   45  A    between atoms: _132  and  _135
REMARK   46  A    between atoms: _135  and  _136
REMARK   47  A    between atoms: _136  and  _137
REMARK   48  A    between atoms: _142  and  _144
REMARK   49  A    between atoms: _144  and  _145
REMARK   50  A    between atoms: _144  and  _147
REMARK   51  A    between atoms: _147  and  _148
REMARK   52  A    between atoms: _154  and  _156
REMARK   53  A    between atoms: _156  and  _157
REMARK   54  A    between atoms: _156  and  _159
REMARK   55  A    between atoms: _159  and  _160
REMARK   56  A    between atoms: _164  and  ZN_436
REMARK   57  A    between atoms: _166  and  _167
REMARK   58  A    between atoms: _172  and  _174
REMARK   59  A    between atoms: _174  and  _175
REMARK   60  A    between atoms: _174  and  _177
REMARK   61  A    between atoms: _177  and  _178
REMARK   62  A    between atoms: _188  and  _190
REMARK   63  A    between atoms: _190  and  _191
REMARK   64  A    between atoms: _190  and  _193
REMARK   65  A    between atoms: _193  and  _194
REMARK   66  A    between atoms: _197  and  _199
REMARK   67  A    between atoms: _199  and  _200
REMARK   68  A    between atoms: _199  and  _202
REMARK   69  A    between atoms: _202  and  _203
REMARK   70  A    between atoms: _203  and  _204
REMARK   71  A    between atoms: _206  and  _208
REMARK   72  A    between atoms: _208  and  _209
REMARK   73  A    between atoms: _208  and  _211
REMARK   74  A    between atoms: _211  and  _212
REMARK   75  A    between atoms: _212  and  _213
REMARK   76  A    between atoms: _215  and  _217
REMARK   77  A    between atoms: _217  and  _218
REMARK   78  A    between atoms: _217  and  _220
REMARK   79  A    between atoms: _220  and  _221
REMARK   80  A    between atoms: _232  and  _233
REMARK   81  A    between atoms: _238  and  _240
REMARK   82  A    between atoms: _240  and  _241
REMARK   83  A    between atoms: _240  and  _243
REMARK   84  A    between atoms: _243  and  _244
REMARK   85  A    between atoms: _254  and  _256
REMARK   86  A    between atoms: _256  and  _257
REMARK   87  A    between atoms: _256  and  _259
REMARK   88  A    between atoms: _259  and  _260
REMARK   89  A    between atoms: _263  and  _265
REMARK   90  A    between atoms: _265  and  _266
REMARK   91  A    between atoms: _265  and  _268
REMARK   92  A    between atoms: _268  and  _269
REMARK   93  A    between atoms: _269  and  _270
REMARK   94  A    between atoms: _272  and  _274
REMARK   95  A    between atoms: _274  and  _275
REMARK   96  A    between atoms: _278  and  _280
REMARK   97  A    between atoms: _280  and  _281
REMARK   98  A    between atoms: _280  and  _283
REMARK   99  A    between atoms: _283  and  _284
REMARK  100  A    between atoms: _289  and  _291
REMARK  101  A    between atoms: _291  and  _292
REMARK  102  A    between atoms: _291  and  _294
REMARK  103  A    between atoms: _294  and  _295
REMARK  104  A    between atoms: _298  and  _300
REMARK  105  A    between atoms: _300  and  _301
REMARK  106  A    between atoms: _300  and  _303
REMARK  107  A    between atoms: _303  and  _304
REMARK  108  A    between atoms: _309  and  _311
REMARK  109  A    between atoms: _311  and  _312
REMARK  110  A    between atoms: _311  and  _314
REMARK  111  A    between atoms: _314  and  _315
REMARK  112  A    between atoms: _318  and  _320
REMARK  113  A    between atoms: _320  and  _321
REMARK  114  A    between atoms: _320  and  _323
REMARK  115  A    between atoms: _323  and  _324
REMARK  116  A    between atoms: _324  and  _325
REMARK  117  A    between atoms: _325  and  ZN_436
REMARK  118  A    between atoms: _327  and  _329
REMARK  119  A    between atoms: _329  and  _330
REMARK  120  A    between atoms: _329  and  _332
REMARK  121  A    between atoms: _332  and  _333
REMARK  122  A    between atoms: _338  and  _339
REMARK  123  A    between atoms: _342  and  _343
REMARK  124  A    between atoms: _348  and  _350
REMARK  125  A    between atoms: _350  and  _351
REMARK  126  A    between atoms: _350  and  _353
REMARK  127  A    between atoms: _353  and  _354
REMARK  128  A    between atoms: _361  and  _362
REMARK  129  A    between atoms: _367  and  _369
REMARK  130  A    between atoms: _369  and  _370
REMARK  131  A    between atoms: _369  and  _372
REMARK  132  A    between atoms: _372  and  _373
REMARK  133  A    between atoms: _376  and  _378
REMARK  134  A    between atoms: _378  and  _379
REMARK  135  A    between atoms: _381  and  _383
REMARK  136  A    between atoms: _383  and  _384
REMARK  137  A    between atoms: _383  and  _386
REMARK  138  A    between atoms: _386  and  _387
REMARK  139  A    between atoms: _387  and  _388
REMARK  140  A    between atoms: _391  and  _393
REMARK  141  A    between atoms: _393  and  _394
REMARK  142  A    between atoms: _393  and  _396
REMARK  143  A    between atoms: _396  and  _397
REMARK  144  A    between atoms: _397  and  _398
REMARK  145  A    between atoms: _398  and  _399
REMARK  146  A    between atoms: _408  and  _410
REMARK  147  A    between atoms: _410  and  _411
REMARK  148  A    between atoms: _410  and  _413
REMARK  149  A    between atoms: _413  and  _414
REMARK  150  A    between atoms: _419  and  _421
REMARK  151  A    between atoms: _421  and  _422
REMARK  152  A    between atoms: _421  and  _424
REMARK  153  A    between atoms: _424  and  _425
REMARK  154  A    between atoms: _425  and  _426
REMARK  155  A    between atoms: _426  and  _427
REMARK                            x       y       z     vdW  Elec       q    Type
REMARK                         _______ _______ _______ _____ _____    ______ ____
ROOT
ATOM      1  C   UNK A   1      -9.907 -14.279  13.039  0.00  0.00    +0.000 C 
ATOM      2  C   UNK A   1      -8.884 -13.523  13.874  0.00  0.00    +0.000 C 
ATOM      3  N   UNK A   2      -8.270 -14.194  14.845  0.00  0.00    +0.000 N 
ATOM      4  C   UNK A   2      -7.176 -13.577  15.599  0.00  0.00    +0.000 C 
ATOM      5  C   UNK A   2      -6.149 -14.605  16.042  0.00  0.00    +0.000 C 
ATOM      6  N   UNK A   3      -4.930 -14.138  16.280  0.00  0.00    +0.000 N 
ATOM      7  C   UNK A   3      -3.797 -15.014  16.486  0.00  0.00    +0.000 C 
ATOM      8  C   UNK A   3      -2.795 -14.857  15.342  0.00  0.00    +0.000 C 
ATOM      9  C   UNK A   3      -3.344 -15.204  13.989  0.00  0.00    +0.000 A 
ATOM     10  N   UNK A   3      -3.804 -16.460  13.669  0.00  0.00    +0.000 NA
ATOM     11  C   UNK A   3      -4.216 -16.470  12.412  0.00  0.00    +0.000 A 
ATOM     12  N   UNK A   3      -4.030 -15.265  11.903  0.00  0.00    +0.000 N 
ATOM     13 ZN   UNK A   3      -4.773 -14.605  10.023  0.00  0.00    +0.000 Zn
ATOM     14  N   UNK A   3      -6.797 -14.541   9.932  0.00  0.00    +0.000 N 
ATOM     15  C   UNK A   3      -7.497 -14.375  11.107  0.00  0.00    +0.000 A 
ATOM     16  C   UNK A   3      -8.757 -14.023  10.772  0.00  0.00    +0.000 A 
ATOM     17  N   UNK A   3      -8.791 -13.976   9.396  0.00  0.00    +0.000 NA
ATOM     18  C   UNK A   3      -7.603 -14.298   8.917  0.00  0.00    +0.000 A 
ATOM     19  C   UNK A   3      -3.487 -14.454  12.865  0.00  0.00    +0.000 A 
ATOM     20  H   UNK A   3      -4.784 -13.109  16.320  0.00  0.00    +0.000 HD
ATOM     21  O   UNK A   2      -6.449 -15.787  16.162  0.00  0.00    +0.000 OA
ATOM     22  H   UNK A   2      -8.569 -15.164  15.071  0.00  0.00    +0.000 HD
ATOM     23  O   UNK A   1      -8.656 -12.342  13.655  0.00  0.00    +0.000 OA
ATOM     24  C   UNK A   3      -9.961 -13.706  11.614  0.00  0.00    +0.000 C 
ENDROOT
BRANCH  13  25
ATOM     25  N   UNK A   3      -4.637 -16.496   9.116  0.00  0.00    +0.000 N 
ATOM     26  C   UNK A   3      -5.424 -17.601   9.324  0.00  0.00    +0.000 A 
ATOM     27  C   UNK A   3      -5.017 -18.557   8.448  0.00  0.00    +0.000 A 
ATOM     28  N   UNK A   3      -3.977 -17.998   7.737  0.00  0.00    +0.000 NA
ATOM     29  C   UNK A   3      -3.773 -16.759   8.148  0.00  0.00    +0.000 A 
BRANCH  27  30
ATOM     30  C   UNK A   3      -5.487 -19.967   8.244  0.00  0.00    +0.000 C 
BRANCH  30  31
ATOM     31  C   UNK A   3      -6.251 -20.199   6.935  0.00  0.00    +0.000 C 
BRANCH  31  32
ATOM     32  C   UNK A   3      -5.227 -20.451   5.841  0.00  0.00    +0.000 C 
ATOM     33  O   UNK A   3      -4.561 -21.477   5.858  0.00  0.00    +0.000 OA
ATOM     34  N   UNK A   2      -5.072 -19.513   4.900  0.00  0.00    +0.000 N 
ATOM     35  C   UNK A   2      -5.816 -18.266   4.650  0.00  0.00    +0.000 C 
ATOM     36  C   UNK A   2      -4.834 -17.453   3.869  0.00  0.00    +0.000 C 
ATOM     37  C   UNK A   2      -4.063 -18.455   3.061  0.00  0.00    +0.000 C 
ATOM     38  C   UNK A   2      -3.950 -19.683   3.972  0.00  0.00    +0.000 C 
BRANCH  38  39
ATOM     39  C   UNK A   2      -2.630 -19.643   4.728  0.00  0.00    +0.000 C 
ATOM     40  O   UNK A   2      -2.509 -18.906   5.696  0.00  0.00    +0.000 OA
ATOM     41  N   UNK A   3      -1.652 -20.425   4.296  0.00  0.00    +0.000 N 
ATOM     42  H   UNK A   3      -1.831 -21.067   3.498  0.00  0.00    +0.000 HD
BRANCH  41  43
ATOM     43  C   UNK A   3      -0.329 -20.408   4.913  0.00  0.00    +0.000 C 
BRANCH  43  44
ATOM     44  C   UNK A   3       0.658 -21.078   3.965  0.00  0.00    +0.000 C 
ATOM     45  N   ASP A   4       1.948 -20.833   4.175  0.00  0.00    +0.000 N 
ATOM     46  H   ASP A   4       2.229 -20.123   4.881  0.00  0.00    +0.000 HD
ATOM     47  O   UNK A   3       0.251 -21.796   3.038  0.00  0.00    +0.000 OA
BRANCH  45  48
ATOM     48  CA  ASP A   4       2.971 -21.549   3.426  0.00  0.00    +0.000 C 
BRANCH  48  49
ATOM     49  C   ASP A   4       2.861 -21.267   1.920  0.00  0.00    +0.000 C 
ATOM     50  N   MET A   5       2.562 -20.019   1.584  0.00  0.00    +0.000 N 
ATOM     51  H   MET A   5       2.352 -19.327   2.331  0.00  0.00    +0.000 HD
ATOM     52  O   ASP A   4       3.031 -22.162   1.081  0.00  0.00    +0.000 OA
BRANCH  50  53
ATOM     53  CA  MET A   5       2.522 -19.599   0.194  0.00  0.00    +0.000 C 
BRANCH  53  54
ATOM     54  C   MET A   5       3.868 -19.910  -0.418  0.00  0.00    +0.000 C 
ATOM     55  O   MET A   5       4.720 -20.516   0.223  0.00  0.00    +0.000 OA
ENDBRANCH  53  54
BRANCH  53  56
ATOM     56  CB  MET A   5       2.271 -18.091   0.088  0.00  0.00    +0.000 C 
BRANCH  56  57
ATOM     57  CG  MET A   5       0.936 -17.623   0.641  0.00  0.00    +0.000 C 
BRANCH  57  58
ATOM     58  SD  MET A   5       0.854 -17.530   2.450  0.00  0.00    +0.000 S 
ATOM     59  CE  MET A   5       1.737 -16.000   2.768  0.00  0.00    +0.000 C 
ENDBRANCH  57  58
ENDBRANCH  56  57
ENDBRANCH  53  56
ENDBRANCH  50  53
ENDBRANCH  48  49
BRANCH  48  60
ATOM     60  CB  ASP A   4       2.860 -23.057   3.710  0.00  0.00    +0.000 C 
BRANCH  60  61
ATOM     61  CG  ASP A   4       4.038 -23.848   3.163  0.00  0.00    +0.000 C 
ATOM     62  OD2 ASP A   4       5.178 -23.337   3.237  0.00  0.00    +0.000 OA
ATOM     63  OD1 ASP A   4       3.824 -24.975   2.658  0.00  0.00    +0.000 OA
ENDBRANCH  60  61
ENDBRANCH  48  60
ENDBRANCH  45  48
ENDBRANCH  43  44
BRANCH  43  64
ATOM     64  C   UNK A   3      -0.350 -21.148   6.254  0.00  0.00    +0.000 C 
BRANCH  64  65
ATOM     65  C   UNK A   3       0.009 -22.590   6.138  0.00  0.00    +0.000 A 
ATOM     66  C   UNK A   3       1.200 -23.228   6.636  0.00  0.00    +0.000 A 
ATOM     67  C   UNK A   3       2.323 -22.778   7.337  0.00  0.00    +0.000 A 
ATOM     68  C   UNK A   3       3.319 -23.700   7.669  0.00  0.00    +0.000 A 
ATOM     69  C   UNK A   3       3.207 -25.052   7.311  0.00  0.00    +0.000 A 
ATOM     70  C   UNK A   3       2.116 -25.516   6.627  0.00  0.00    +0.000 A 
ATOM     71  C   UNK A   3       1.119 -24.591   6.286  0.00  0.00    +0.000 A 
ATOM     72  N   UNK A   3      -0.064 -24.771   5.619  0.00  0.00    +0.000 N 
ATOM     73  H   UNK A   3      -0.413 -25.675   5.241  0.00  0.00    +0.000 HD
ATOM     74  C   UNK A   3      -0.718 -23.561   5.529  0.00  0.00    +0.000 A 
ENDBRANCH  64  65
ENDBRANCH  43  64
ENDBRANCH  41  43
ENDBRANCH  38  39
ENDBRANCH  31  32
BRANCH  31  75
ATOM     75  N   UNK A   3      -7.106 -21.379   7.059  0.00  0.00    +0.000 NA
ATOM     76  H   UNK A   1      -6.677 -22.282   7.346  0.00  0.00    +0.000 HD
ENDBRANCH  31  75
ENDBRANCH  30  31
ENDBRANCH  27  30
ENDBRANCH  13  25
BRANCH   1  77
ATOM     77  N   UNK A   1     -11.220 -14.163  13.635  0.00  0.00    +0.000 NA
ATOM     78  H   UNK A   1     -11.629 -13.216  13.770  0.00  0.00    +0.000 HD
ENDBRANCH   1  77
BRANCH   7  79
ATOM     79  C   UNK A   3      -3.093 -14.671  17.784  0.00  0.00    +0.000 C 
ATOM     80  O   UNK A   3      -2.818 -13.505  18.065  0.00  0.00    +0.000 OA
ENDBRANCH   7  79
BRANCH   4  81
ATOM     81  C   UNK A   2      -7.695 -12.767  16.791  0.00  0.00    +0.000 C 
BRANCH  81  82
ATOM     82  O   UNK A   2      -8.255 -13.610  17.773  0.00  0.00    +0.000 OA
ATOM     83  H   UNK A   2      -9.010 -14.116  17.380  0.00  0.00    +0.000 HD
ENDBRANCH  81  82
ENDBRANCH   4  81
BRANCH  13  84
ATOM     84  O   UNK A   2      -4.848 -12.559  10.279  0.00  0.00    +0.000 OA
BRANCH  84  85
ATOM     85  C   UNK A   2      -5.212 -11.566   9.593  0.00  0.00    +0.000 C 
ATOM     86  O   UNK A   2      -5.148 -11.541   8.336  0.00  0.00    +0.000 OA
BRANCH  85  87
ATOM     87  C   UNK A   2      -5.768 -10.359  10.322  0.00  0.00    +0.000 C 
BRANCH  87  88
ATOM     88  C   UNK A   2      -6.308 -10.723  11.692  0.00  0.00    +0.000 C 
BRANCH  88  89
ATOM     89  C   UNK A   2      -5.508 -10.028  12.777  0.00  0.00    +0.000 C 
ATOM     90  N   UNK A   3      -6.204  -9.749  13.874  0.00  0.00    +0.000 N 
ATOM     91  H   UNK A   3      -7.231  -9.911  13.863  0.00  0.00    +0.000 HD
ATOM     92  O   UNK A   2      -4.311  -9.766  12.631  0.00  0.00    +0.000 OA
BRANCH  90  93
ATOM     93  C   UNK A   3      -5.604  -9.232  15.079  0.00  0.00    +0.000 C 
BRANCH  93  94
ATOM     94  C   UNK A   3      -4.532 -10.190  15.575  0.00  0.00    +0.000 C 
ATOM     95  N   ASP A   4      -3.379  -9.641  15.988  0.00  0.00    +0.000 N 
ATOM     96  CD  ASP A   4      -2.274 -10.376  16.634  0.00  0.00    +0.000 C 
ATOM     97  CG  ASP A   4      -1.416  -9.258  17.243  0.00  0.00    +0.000 C 
ATOM     98  CB  ASP A   4      -2.298  -8.004  17.236  0.00  0.00    +0.000 C 
ATOM     99  CA  ASP A   4      -3.101  -8.203  15.950  0.00  0.00    +0.000 C 
ATOM    100  O   UNK A   3      -4.729 -11.404  15.575  0.00  0.00    +0.000 OA
BRANCH  99 101
ATOM    101  C   ASP A   4      -2.213  -7.836  14.759  0.00  0.00    +0.000 C 
ATOM    102  O   ASP A   4      -1.382  -6.953  14.858  0.00  0.00    +0.000 OA
ATOM    103  N   MET A   5      -2.359  -8.502  13.635  0.00  0.00    +0.000 N 
ATOM    104  H   MET A   5      -3.091  -9.235  13.539  0.00  0.00    +0.000 HD
BRANCH 103 105
ATOM    105  CA  MET A   5      -1.466  -8.184  12.528  0.00  0.00    +0.000 C 
BRANCH 105 106
ATOM    106  C   MET A   5      -1.913  -6.956  11.708  0.00  0.00    +0.000 C 
ATOM    107  O   MET A   5      -3.096  -6.645  11.632  0.00  0.00    +0.000 OA
ATOM    108  N   PRO A   6      -0.946  -6.229  11.135  0.00  0.00    +0.000 N 
ATOM    109  CD  PRO A   6       0.497  -6.517  11.225  0.00  0.00    +0.000 C 
ATOM    110  CG  PRO A   6       1.073  -5.661  10.129  0.00  0.00    +0.000 C 
ATOM    111  CB  PRO A   6       0.186  -4.458  10.064  0.00  0.00    +0.000 C 
ATOM    112  CA  PRO A   6      -1.217  -4.971  10.417  0.00  0.00    +0.000 C 
BRANCH 112 113
ATOM    113  C   PRO A   6      -2.074  -5.127   9.149  0.00  0.00    +0.000 C 
ATOM    114  O   PRO A   6      -2.919  -4.274   8.858  0.00  0.00    +0.000 OA
ATOM    115  N   LEU A   7      -1.863  -6.206   8.410  0.00  0.00    +0.000 N 
ATOM    116  H   LEU A   7      -1.129  -6.884   8.697  0.00  0.00    +0.000 HD
BRANCH 115 117
ATOM    117  CA  LEU A   7      -2.639  -6.464   7.201  0.00  0.00    +0.000 C 
BRANCH 117 118
ATOM    118  C   LEU A   7      -4.112  -6.646   7.552  0.00  0.00    +0.000 C 
ATOM    119  N   GLY A   8      -4.420  -6.565   8.852  0.00  0.00    +0.000 N 
ATOM    120  H   GLY A   8      -3.662  -6.342   9.528  0.00  0.00    +0.000 HD
ATOM    121  O   LEU A   7      -4.944  -6.848   6.661  0.00  0.00    +0.000 OA
BRANCH 119 122
ATOM    122  CA  GLY A   8      -5.763  -6.774   9.361  0.00  0.00    +0.000 C 
BRANCH 122 123
ATOM    123  C   GLY A   8      -6.589  -5.506   9.409  0.00  0.00    +0.000 C 
ATOM    124  N   GLU A   9      -7.847  -5.635   9.813  0.00  0.00    +0.000 N 
ATOM    125  H   GLU A   9      -8.225  -6.587   9.992  0.00  0.00    +0.000 HD
ATOM    126  O   GLY A   8      -6.107  -4.430   9.083  0.00  0.00    +0.000 OA
BRANCH 124 127
ATOM    127  CA  GLU A   9      -8.713  -4.481  10.013  0.00  0.00    +0.000 C 
BRANCH 127 128
ATOM    128  C   GLU A   9      -8.391  -3.781  11.338  0.00  0.00    +0.000 C 
ATOM    129  O   GLU A   9      -8.633  -4.328  12.413  0.00  0.00    +0.000 OA
ENDBRANCH 127 128
BRANCH 127 130
ATOM    130  CB  GLU A   9     -10.174  -4.913  10.011  0.00  0.00    +0.000 C 
BRANCH 130 131
ATOM    131  CG  GLU A   9     -11.122  -3.847  10.531  0.00  0.00    +0.000 C 
BRANCH 131 132
ATOM    132  CD  GLU A   9     -12.570  -4.155  10.205  0.00  0.00    +0.000 C 
ATOM    133  OE2 GLU A   9     -12.999  -5.291  10.504  0.00  0.00    +0.000 OA
ATOM    134  OE1 GLU A   9     -13.268  -3.280   9.628  0.00  0.00    +0.000 OA
ENDBRANCH 131 132
ENDBRANCH 130 131
ENDBRANCH 127 130
ENDBRANCH 124 127
ENDBRANCH 122 123
ENDBRANCH 119 122
ENDBRANCH 117 118
BRANCH 117 135
ATOM    135  CB  LEU A   7      -2.118  -7.719   6.502  0.00  0.00    +0.000 C 
BRANCH 135 136
ATOM    136  CG  LEU A   7      -1.825  -7.700   4.997  0.00  0.00    +0.000 C 
ATOM    137  CD2 LEU A   7      -2.395  -8.958   4.352  0.00  0.00    +0.000 C 
ATOM    138  CD1 LEU A   7      -2.334  -6.444   4.300  0.00  0.00    +0.000 C 
ENDBRANCH 135 136
ENDBRANCH 117 135
ENDBRANCH 115 117
ENDBRANCH 112 113
ENDBRANCH 105 106
BRANCH 105 139
ATOM    139  CB  MET A   5      -1.186  -9.444  11.698  0.00  0.00    +0.000 C 
BRANCH 139 140
ATOM    140  CG  MET A   5      -0.513 -10.529  12.501  0.00  0.00    +0.000 A 
ATOM    141  CD2 MET A   5       0.605 -10.232  13.272  0.00  0.00    +0.000 A 
ATOM    142  CE2 MET A   5       1.229 -11.228  14.034  0.00  0.00    +0.000 A 
ATOM    143  CZ  MET A   5       0.726 -12.526  14.036  0.00  0.00    +0.000 A 
ATOM    144  CE1 MET A   5      -0.391 -12.825  13.277  0.00  0.00    +0.000 A 
ATOM    145  CD1 MET A   5      -1.007 -11.835  12.514  0.00  0.00    +0.000 A 
ENDBRANCH 139 140
ENDBRANCH 105 139
ENDBRANCH 103 105
ENDBRANCH  99 101
ENDBRANCH  93  94
BRANCH  93 146
ATOM    146  C   UNK A   3      -6.680  -9.045  16.142  0.00  0.00    +0.000 C 
BRANCH 146 147
ATOM    147  C   UNK A   3      -6.175  -8.444  17.432  0.00  0.00    +0.000 A 
ATOM    148  C   UNK A   3      -5.486  -9.215  18.359  0.00  0.00    +0.000 A 
ATOM    149  C   UNK A   3      -5.025  -8.658  19.552  0.00  0.00    +0.000 A 
ATOM    150  C   UNK A   3      -5.255  -7.319  19.817  0.00  0.00    +0.000 A 
ATOM    151  C   UNK A   3      -5.939  -6.543  18.910  0.00  0.00    +0.000 A 
ATOM    152  C   UNK A   3      -6.391  -7.104  17.724  0.00  0.00    +0.000 A 
BRANCH 150 153
ATOM    153  O   UNK A   3      -4.803  -6.761  20.987  0.00  0.00    +0.000 OA
ATOM    154  H   UNK A   3      -5.052  -5.803  21.012  0.00  0.00    +0.000 HD
ENDBRANCH 150 153
ENDBRANCH 146 147
ENDBRANCH  93 146
ENDBRANCH  90  93
ENDBRANCH  88  89
BRANCH  88 155
ATOM    155  N   UNK A   2      -7.740 -10.424  11.830  0.00  0.00    +0.000 N 
ATOM    156  H   UNK A   2      -8.409 -11.202  12.000  0.00  0.00    +0.000 HD
ATOM    157  C   UNK A   1      -8.196  -9.183  11.742  0.00  0.00    +0.000 C 
ATOM    158  O   UNK A   1      -7.480  -8.264  11.392  0.00  0.00    +0.000 OA
BRANCH 157 159
ATOM    159  C   UNK A   1      -9.671  -8.922  12.088  0.00  0.00    +0.000 C 
BRANCH 159 160
ATOM    160  C   UNK A   1      -9.757  -8.317  13.505  0.00  0.00    +0.000 C 
ATOM    161  C   UNK A   1      -8.425  -7.788  13.960  0.00  0.00    +0.000 C 
BRANCH 160 162
ATOM    162  O   UNK A   1     -10.712  -7.261  13.500  0.00  0.00    +0.000 OA
ATOM    163  H   UNK A   1     -10.772  -6.868  14.407  0.00  0.00    +0.000 HD
ENDBRANCH 160 162
ENDBRANCH 159 160
BRANCH 159 164
ATOM    164  N   UNK A   1     -10.563 -10.071  12.007  0.00  0.00    +0.000 NA
ATOM    165  H   UNK A   1     -10.450 -10.838  12.700  0.00  0.00    +0.000 HD
ENDBRANCH 159 164
ENDBRANCH 157 159
ENDBRANCH  88 155
ENDBRANCH  87  88
ENDBRANCH  85  87
ENDBRANCH  84  85
ENDBRANCH  13  84
TORSDOF 55
REMARK  Name = ../refined-set-2016/4ih3/4ih3_pocket.pdb
REMARK  155 active torsions:
REMARK  status: ('A' for Active; 'I' for Inactive)
REMARK    1  A    between atoms: _1  and  _3
REMARK    2  A    between atoms: _14  and  _17
REMARK    3  A    between atoms: _17  and  _18
REMARK    4  A    between atoms: _22  and  _23
REMARK    5  A    between atoms: _31  and  _33
REMARK    6  A    between atoms: _33  and  _34
REMARK    7  A    between atoms: _33  and  _36
REMARK    8  A    between atoms: _36  and  _37
REMARK    9  A    between atoms: _40  and  _42
REMARK   10  A    between atoms: _42  and  _43
REMARK   11  A    between atoms: _42  and  _45
REMARK   12  A    between atoms: _45  and  _46
REMARK   13  A    between atoms: _52  and  _54
REMARK   14  A    between atoms: _54  and  _55
REMARK   15  A    between atoms: _54  and  _57
REMARK   16  A    between atoms: _57  and  _58
REMARK   17  A    between atoms: _58  and  _59
REMARK   18  A    between atoms: _59  and  _60
REMARK   19  A    between atoms: _69  and  _71
REMARK   20  A    between atoms: _71  and  _72
REMARK   21  A    between atoms: _71  and  _74
REMARK   22  A    between atoms: _74  and  _75
REMARK   23  A    between atoms: _77  and  _79
REMARK   24  A    between atoms: _79  and  _80
REMARK   25  A    between atoms: _79  and  _82
REMARK   26  A    between atoms: _82  and  _83
REMARK   27  A    between atoms: _86  and  _88
REMARK   28  A    between atoms: _88  and  _89
REMARK   29  A    between atoms: _88  and  _91
REMARK   30  A    between atoms: _95  and  _96
REMARK   31  A    between atoms: _101  and  _103
REMARK   32  A    between atoms: _103  and  _104
REMARK   33  A    between atoms: _103  and  _106
REMARK   34  A    between atoms: _109  and  _111
REMARK   35  A    between atoms: _111  and  _112
REMARK   36  A    between atoms: _111  and  _114
REMARK   37  A    between atoms: _114  and  _115
REMARK   38  A    between atoms: _115  and  _116
REMARK   39  A    between atoms: _118  and  _120
REMARK   40  A    between atoms: _120  and  _121
REMARK   41  A    between atoms: _120  and  _123
REMARK   42  A    between atoms: _123  and  _124
REMARK   43  A    between atoms: _130  and  _132
REMARK   44  A    between atoms: _132  and  _133
REMARK   45  A    between atoms: _132  and  _135
REMARK   46  A    between atoms: _135  and  _136
REMARK   47  A    between atoms: _136  and  _137
REMARK   48  A    between atoms: _142  and  _144
REMARK   49  A    between atoms: _144  and  _145
REMARK   50  A    between atoms: _144  and  _147
REMARK   51  A    between atoms: _147  and  _148
REMARK   52  A    between atoms: _154  and  _156
REMARK   53  A    between atoms: _156  and  _157
REMARK   54  A    between atoms: _156  and  _159
REMARK   55  A    between atoms: _159  and  _160
REMARK   56  A    between atoms: _164  and  ZN_436
REMARK   57  A    between atoms: _166  and  _167
REMARK   58  A    between atoms: _172  and  _174
REMARK   59  A    between atoms: _174  and  _175
REMARK   60  A    between atoms: _174  and  _177
REMARK   61  A    between atoms: _177  and  _178
REMARK   62  A    between atoms: _188  and  _190
REMARK   63  A    between atoms: _190  and  _191
REMARK   64  A    between atoms: _190  and  _193
REMARK   65  A    between atoms: _193  and  _194
REMARK   66  A    between atoms: _197  and  _199
REMARK   67  A    between atoms: _199  and  _200
REMARK   68  A    between atoms: _199  and  _202
REMARK   69  A    between atoms: _202  and  _203
REMARK   70  A    between atoms: _203  and  _204
REMARK   71  A    between atoms: _206  and  _208
REMARK   72  A    between atoms: _208  and  _209
REMARK   73  A    between atoms: _208  and  _211
REMARK   74  A    between atoms: _211  and  _212
REMARK   75  A    between atoms: _212  and  _213
REMARK   76  A    between atoms: _215  and  _217
REMARK   77  A    between atoms: _217  and  _218
REMARK   78  A    between atoms: _217  and  _220
REMARK   79  A    between atoms: _220  and  _221
REMARK   80  A    between atoms: _232  and  _233
REMARK   81  A    between atoms: _238  and  _240
REMARK   82  A    between atoms: _240  and  _241
REMARK   83  A    between atoms: _240  and  _243
REMARK   84  A    between atoms: _243  and  _244
REMARK   85  A    between atoms: _254  and  _256
REMARK   86  A    between atoms: _256  and  _257
REMARK   87  A    between atoms: _256  and  _259
REMARK   88  A    between atoms: _259  and  _260
REMARK   89  A    between atoms: _263  and  _265
REMARK   90  A    between atoms: _265  and  _266
REMARK   91  A    between atoms: _265  and  _268
REMARK   92  A    between atoms: _268  and  _269
REMARK   93  A    between atoms: _269  and  _270
REMARK   94  A    between atoms: _272  and  _274
REMARK   95  A    between atoms: _274  and  _275
REMARK   96  A    between atoms: _278  and  _280
REMARK   97  A    between atoms: _280  and  _281
REMARK   98  A    between atoms: _280  and  _283
REMARK   99  A    between atoms: _283  and  _284
REMARK  100  A    between atoms: _289  and  _291
REMARK  101  A    between atoms: _291  and  _292
REMARK  102  A    between atoms: _291  and  _294
REMARK  103  A    between atoms: _294  and  _295
REMARK  104  A    between atoms: _298  and  _300
REMARK  105  A    between atoms: _300  and  _301
REMARK  106  A    between atoms: _300  and  _303
REMARK  107  A    between atoms: _303  and  _304
REMARK  108  A    between atoms: _309  and  _311
REMARK  109  A    between atoms: _311  and  _312
REMARK  110  A    between atoms: _311  and  _314
REMARK  111  A    between atoms: _314  and  _315
REMARK  112  A    between atoms: _318  and  _320
REMARK  113  A    between atoms: _320  and  _321
REMARK  114  A    between atoms: _320  and  _323
REMARK  115  A    between atoms: _323  and  _324
REMARK  116  A    between atoms: _324  and  _325
REMARK  117  A    between atoms: _325  and  ZN_436
REMARK  118  A    between atoms: _327  and  _329
REMARK  119  A    between atoms: _329  and  _330
REMARK  120  A    between atoms: _329  and  _332
REMARK  121  A    between atoms: _332  and  _333
REMARK  122  A    between atoms: _338  and  _339
REMARK  123  A    between atoms: _342  and  _343
REMARK  124  A    between atoms: _348  and  _350
REMARK  125  A    between atoms: _350  and  _351
REMARK  126  A    between atoms: _350  and  _353
REMARK  127  A    between atoms: _353  and  _354
REMARK  128  A    between atoms: _361  and  _362
REMARK  129  A    between atoms: _367  and  _369
REMARK  130  A    between atoms: _369  and  _370
REMARK  131  A    between atoms: _369  and  _372
REMARK  132  A    between atoms: _372  and  _373
REMARK  133  A    between atoms: _376  and  _378
REMARK  134  A    between atoms: _378  and  _379
REMARK  135  A    between atoms: _381  and  _383
REMARK  136  A    between atoms: _383  and  _384
REMARK  137  A    between atoms: _383  and  _386
REMARK  138  A    between atoms: _386  and  _387
REMARK  139  A    between atoms: _387  and  _388
REMARK  140  A    between atoms: _391  and  _393
REMARK  141  A    between atoms: _393  and  _394
REMARK  142  A    between atoms: _393  and  _396
REMARK  143  A    between atoms: _396  and  _397
REMARK  144  A    between atoms: _397  and  _398
REMARK  145  A    between atoms: _398  and  _399
REMARK  146  A    between atoms: _408  and  _410
REMARK  147  A    between atoms: _410  and  _411
REMARK  148  A    between atoms: _410  and  _413
REMARK  149  A    between atoms: _413  and  _414
REMARK  150  A    between atoms: _419  and  _421
REMARK  151  A    between atoms: _421  and  _422
REMARK  152  A    between atoms: _421  and  _424
REMARK  153  A    between atoms: _424  and  _425
REMARK  154  A    between atoms: _425  and  _426
REMARK  155  A    between atoms: _426  and  _427
REMARK                            x       y       z     vdW  Elec       q    Type
REMARK                         _______ _______ _______ _____ _____    ______ ____
ROOT
ATOM      1  CA  LEU A   1       9.945 -14.661  15.903  0.00  0.00    +0.133 C 
ENDROOT
BRANCH   1   2
ATOM      2  N   LEU A   1      10.143 -13.292  16.342  0.00  0.00    -0.239 NA
ATOM      3  H   LEU A   1       9.652 -12.520  15.847  0.00  0.00    +0.142 HD
ENDBRANCH   1   2
BRANCH   1   4
ATOM      4  C   LEU A   1      11.099 -15.087  14.979  0.00  0.00    +0.224 C 
ATOM      5  O   LEU A   1      11.392 -14.418  13.985  0.00  0.00    -0.287 OA
ENDBRANCH   1   4
BRANCH   1   6
ATOM      6  CB  LEU A   1       8.620 -14.770  15.164  0.00  0.00    +0.025 C 
BRANCH   6   7
ATOM      7  CG  LEU A   1       7.367 -15.046  15.977  0.00  0.00    +0.002 C 
ATOM      8  CD2 LEU A   1       7.628 -16.246  16.850  0.00  0.00    +0.000 C 
ATOM      9  CD1 LEU A   1       6.183 -15.320  15.051  0.00  0.00    +0.000 C 
ENDBRANCH   6   7
ENDBRANCH   1   6
TORSDOF 4
REMARK  Name = ../refined-set-2016/4ih3/4ih3_pocket.pdb
REMARK  155 active torsions:
REMARK  status: ('A' for Active; 'I' for Inactive)
REMARK    1  A    between atoms: _1  and  _3
REMARK    2  A    between atoms: _14  and  _17
REMARK    3  A    between atoms: _17  and  _18
REMARK    4  A    between atoms: _22  and  _23
REMARK    5  A    between atoms: _31  and  _33
REMARK    6  A    between atoms: _33  and  _34
REMARK    7  A    between atoms: _33  and  _36
REMARK    8  A    between atoms: _36  and  _37
REMARK    9  A    between atoms: _40  and  _42
REMARK   10  A    between atoms: _42  and  _43
REMARK   11  A    between atoms: _42  and  _45
REMARK   12  A    between atoms: _45  and  _46
REMARK   13  A    between atoms: _52  and  _54
REMARK   14  A    between atoms: _54  and  _55
REMARK   15  A    between atoms: _54  and  _57
REMARK   16  A    between atoms: _57  and  _58
REMARK   17  A    between atoms: _58  and  _59
REMARK   18  A    between atoms: _59  and  _60
REMARK   19  A    between atoms: _69  and  _71
REMARK   20  A    between atoms: _71  and  _72
REMARK   21  A    between atoms: _71  and  _74
REMARK   22  A    between atoms: _74  and  _75
REMARK   23  A    between atoms: _77  and  _79
REMARK   24  A    between atoms: _79  and  _80
REMARK   25  A    between atoms: _79  and  _82
REMARK   26  A    between atoms: _82  and  _83
REMARK   27  A    between atoms: _86  and  _88
REMARK   28  A    between atoms: _88  and  _89
REMARK   29  A    between atoms: _88  and  _91
REMARK   30  A    between atoms: _95  and  _96
REMARK   31  A    between atoms: _101  and  _103
REMARK   32  A    between atoms: _103  and  _104
REMARK   33  A    between atoms: _103  and  _106
REMARK   34  A    between atoms: _109  and  _111
REMARK   35  A    between atoms: _111  and  _112
REMARK   36  A    between atoms: _111  and  _114
REMARK   37  A    between atoms: _114  and  _115
REMARK   38  A    between atoms: _115  and  _116
REMARK   39  A    between atoms: _118  and  _120
REMARK   40  A    between atoms: _120  and  _121
REMARK   41  A    between atoms: _120  and  _123
REMARK   42  A    between atoms: _123  and  _124
REMARK   43  A    between atoms: _130  and  _132
REMARK   44  A    between atoms: _132  and  _133
REMARK   45  A    between atoms: _132  and  _135
REMARK   46  A    between atoms: _135  and  _136
REMARK   47  A    between atoms: _136  and  _137
REMARK   48  A    between atoms: _142  and  _144
REMARK   49  A    between atoms: _144  and  _145
REMARK   50  A    between atoms: _144  and  _147
REMARK   51  A    between atoms: _147  and  _148
REMARK   52  A    between atoms: _154  and  _156
REMARK   53  A    between atoms: _156  and  _157
REMARK   54  A    between atoms: _156  and  _159
REMARK   55  A    between atoms: _159  and  _160
REMARK   56  A    between atoms: _164  and  ZN_436
REMARK   57  A    between atoms: _166  and  _167
REMARK   58  A    between atoms: _172  and  _174
REMARK   59  A    between atoms: _174  and  _175
REMARK   60  A    between atoms: _174  and  _177
REMARK   61  A    between atoms: _177  and  _178
REMARK   62  A    between atoms: _188  and  _190
REMARK   63  A    between atoms: _190  and  _191
REMARK   64  A    between atoms: _190  and  _193
REMARK   65  A    between atoms: _193  and  _194
REMARK   66  A    between atoms: _197  and  _199
REMARK   67  A    between atoms: _199  and  _200
REMARK   68  A    between atoms: _199  and  _202
REMARK   69  A    between atoms: _202  and  _203
REMARK   70  A    between atoms: _203  and  _204
REMARK   71  A    between atoms: _206  and  _208
REMARK   72  A    between atoms: _208  and  _209
REMARK   73  A    between atoms: _208  and  _211
REMARK   74  A    between atoms: _211  and  _212
REMARK   75  A    between atoms: _212  and  _213
REMARK   76  A    between atoms: _215  and  _217
REMARK   77  A    between atoms: _217  and  _218
REMARK   78  A    between atoms: _217  and  _220
REMARK   79  A    between atoms: _220  and  _221
REMARK   80  A    between atoms: _232  and  _233
REMARK   81  A    between atoms: _238  and  _240
REMARK   82  A    between atoms: _240  and  _241
REMARK   83  A    between atoms: _240  and  _243
REMARK   84  A    between atoms: _243  and  _244
REMARK   85  A    between atoms: _254  and  _256
REMARK   86  A    between atoms: _256  and  _257
REMARK   87  A    between atoms: _256  and  _259
REMARK   88  A    between atoms: _259  and  _260
REMARK   89  A    between atoms: _263  and  _265
REMARK   90  A    between atoms: _265  and  _266
REMARK   91  A    between atoms: _265  and  _268
REMARK   92  A    between atoms: _268  and  _269
REMARK   93  A    between atoms: _269  and  _270
REMARK   94  A    between atoms: _272  and  _274
REMARK   95  A    between atoms: _274  and  _275
REMARK   96  A    between atoms: _278  and  _280
REMARK   97  A    between atoms: _280  and  _281
REMARK   98  A    between atoms: _280  and  _283
REMARK   99  A    between atoms: _283  and  _284
REMARK  100  A    between atoms: _289  and  _291
REMARK  101  A    between atoms: _291  and  _292
REMARK  102  A    between atoms: _291  and  _294
REMARK  103  A    between atoms: _294  and  _295
REMARK  104  A    between atoms: _298  and  _300
REMARK  105  A    between atoms: _300  and  _301
REMARK  106  A    between atoms: _300  and  _303
REMARK  107  A    between atoms: _303  and  _304
REMARK  108  A    between atoms: _309  and  _311
REMARK  109  A    between atoms: _311  and  _312
REMARK  110  A    between atoms: _311  and  _314
REMARK  111  A    between atoms: _314  and  _315
REMARK  112  A    between atoms: _318  and  _320
REMARK  113  A    between atoms: _320  and  _321
REMARK  114  A    between atoms: _320  and  _323
REMARK  115  A    between atoms: _323  and  _324
REMARK  116  A    between atoms: _324  and  _325
REMARK  117  A    between atoms: _325  and  ZN_436
REMARK  118  A    between atoms: _327  and  _329
REMARK  119  A    between atoms: _329  and  _330
REMARK  120  A    between atoms: _329  and  _332
REMARK  121  A    between atoms: _332  and  _333
REMARK  122  A    between atoms: _338  and  _339
REMARK  123  A    between atoms: _342  and  _343
REMARK  124  A    between atoms: _348  and  _350
REMARK  125  A    between atoms: _350  and  _351
REMARK  126  A    between atoms: _350  and  _353
REMARK  127  A    between atoms: _353  and  _354
REMARK  128  A    between atoms: _361  and  _362
REMARK  129  A    between atoms: _367  and  _369
REMARK  130  A    between atoms: _369  and  _370
REMARK  131  A    between atoms: _369  and  _372
REMARK  132  A    between atoms: _372  and  _373
REMARK  133  A    between atoms: _376  and  _378
REMARK  134  A    between atoms: _378  and  _379
REMARK  135  A    between atoms: _381  and  _383
REMARK  136  A    between atoms: _383  and  _384
REMARK  137  A    between atoms: _383  and  _386
REMARK  138  A    between atoms: _386  and  _387
REMARK  139  A    between atoms: _387  and  _388
REMARK  140  A    between atoms: _391  and  _393
REMARK  141  A    between atoms: _393  and  _394
REMARK  142  A    between atoms: _393  and  _396
REMARK  143  A    between atoms: _396  and  _397
REMARK  144  A    between atoms: _397  and  _398
REMARK  145  A    between atoms: _398  and  _399
REMARK  146  A    between atoms: _408  and  _410
REMARK  147  A    between atoms: _410  and  _411
REMARK  148  A    between atoms: _410  and  _413
REMARK  149  A    between atoms: _413  and  _414
REMARK  150  A    between atoms: _419  and  _421
REMARK  151  A    between atoms: _421  and  _422
REMARK  152  A    between atoms: _421  and  _424
REMARK  153  A    between atoms: _424  and  _425
REMARK  154  A    between atoms: _425  and  _426
REMARK  155  A    between atoms: _426  and  _427
REMARK                            x       y       z     vdW  Elec       q    Type
REMARK                         _______ _______ _______ _____ _____    ______ ____
ROOT
ATOM      1  CA  ARG A   2       8.463 -11.115  11.979  0.00  0.00    +0.137 C 
ENDROOT
BRANCH   1   3
ATOM      2  C   PHE A   1       9.704 -12.462  10.390  0.00  0.00    +0.239 C 
ATOM      3  N   ARG A   2       9.499 -12.077  11.645  0.00  0.00    -0.298 N 
ATOM      4  H   ARG A   2      10.092 -12.472  12.403  0.00  0.00    +0.150 HD
ATOM      5  O   PHE A   1       8.965 -12.123   9.467  0.00  0.00    -0.274 OA
BRANCH   2   6
ATOM      6  CA  PHE A   1      10.937 -13.339  10.135  0.00  0.00    +0.149 C 
BRANCH   6   7
ATOM      7  N   PHE A   1      11.867 -13.327  11.256  0.00  0.00    -0.238 NA
ATOM      8  H   PHE A   1      11.695 -13.938  12.079  0.00  0.00    +0.142 HD
ENDBRANCH   6   7
BRANCH   6   9
ATOM      9  CB  PHE A   1      10.573 -14.782   9.762  0.00  0.00    +0.053 C 
BRANCH   9  10
ATOM     10  CG  PHE A   1       9.196 -15.187  10.176  0.00  0.00    -0.020 A 
ATOM     11  CD2 PHE A   1       8.980 -15.773  11.396  0.00  0.00    -0.004 A 
ATOM     12  CE2 PHE A   1       7.716 -16.142  11.776  0.00  0.00    -0.000 A 
ATOM     13  CZ  PHE A   1       6.643 -15.929  10.930  0.00  0.00    -0.000 A 
ATOM     14  CE1 PHE A   1       6.845 -15.361   9.702  0.00  0.00    -0.000 A 
ATOM     15  CD1 PHE A   1       8.116 -14.993   9.329  0.00  0.00    -0.004 A 
ENDBRANCH   9  10
ENDBRANCH   6   9
ENDBRANCH   2   6
ENDBRANCH   1   3
BRANCH   1  16
ATOM     16  C   ARG A   2       8.664 -10.588  13.385  0.00  0.00    +0.227 C 
ATOM     17  O   ARG A   2       9.119 -11.316  14.275  0.00  0.00    -0.286 OA
ENDBRANCH   1  16
BRANCH   1  18
ATOM     18  CB  ARG A   2       7.088 -11.742  11.835  0.00  0.00    +0.031 C 
BRANCH  18  19
ATOM     19  CG  ARG A   2       5.954 -10.862  12.280  0.00  0.00    +0.045 C 
BRANCH  19  20
ATOM     20  CD  ARG A   2       4.669 -11.663  12.291  0.00  0.00    +0.174 C 
BRANCH  20  21
ATOM     21  NE  ARG A   2       3.967 -11.632  11.008  0.00  0.00    -0.265 N 
ATOM     22  CZ  ARG A   2       3.271 -12.647  10.512  0.00  0.00    +0.342 C 
ATOM     23  NH2 ARG A   2       3.204 -13.794  11.169  0.00  0.00    -0.292 N 
ATOM     24 HH21 ARG A   2       3.698 -13.902  12.078  0.00  0.00    +0.255 HD
ATOM     25 HH22 ARG A   2       2.657 -14.587  10.777  0.00  0.00    +0.255 HD
ATOM     26  NH1 ARG A   2       2.654 -12.525   9.342  0.00  0.00    -0.292 N 
ATOM     27 HH11 ARG A   2       2.109 -13.322   8.956  0.00  0.00    +0.255 HD
ATOM     28 HH12 ARG A   2       2.716 -11.632   8.812  0.00  0.00    +0.255 HD
ATOM     29  HE  ARG A   2       4.017 -10.757  10.448  0.00  0.00    +0.259 HD
ENDBRANCH  20  21
ENDBRANCH  19  20
ENDBRANCH  18  19
ENDBRANCH   1  18
TORSDOF 10
REMARK  Name = ../refined-set-2016/4ih3/4ih3_pocket.pdb
REMARK  155 active torsions:
REMARK  status: ('A' for Active; 'I' for Inactive)
REMARK    1  A    between atoms: _1  and  _3
REMARK    2  A    between atoms: _14  and  _17
REMARK    3  A    between atoms: _17  and  _18
REMARK    4  A    between atoms: _22  and  _23
REMARK    5  A    between atoms: _31  and  _33
REMARK    6  A    between atoms: _33  and  _34
REMARK    7  A    between atoms: _33  and  _36
REMARK    8  A    between atoms: _36  and  _37
REMARK    9  A    between atoms: _40  and  _42
REMARK   10  A    between atoms: _42  and  _43
REMARK   11  A    between atoms: _42  and  _45
REMARK   12  A    between atoms: _45  and  _46
REMARK   13  A    between atoms: _52  and  _54
REMARK   14  A    between atoms: _54  and  _55
REMARK   15  A    between atoms: _54  and  _57
REMARK   16  A    between atoms: _57  and  _58
REMARK   17  A    between atoms: _58  and  _59
REMARK   18  A    between atoms: _59  and  _60
REMARK   19  A    between atoms: _69  and  _71
REMARK   20  A    between atoms: _71  and  _72
REMARK   21  A    between atoms: _71  and  _74
REMARK   22  A    between atoms: _74  and  _75
REMARK   23  A    between atoms: _77  and  _79
REMARK   24  A    between atoms: _79  and  _80
REMARK   25  A    between atoms: _79  and  _82
REMARK   26  A    between atoms: _82  and  _83
REMARK   27  A    between atoms: _86  and  _88
REMARK   28  A    between atoms: _88  and  _89
REMARK   29  A    between atoms: _88  and  _91
REMARK   30  A    between atoms: _95  and  _96
REMARK   31  A    between atoms: _101  and  _103
REMARK   32  A    between atoms: _103  and  _104
REMARK   33  A    between atoms: _103  and  _106
REMARK   34  A    between atoms: _109  and  _111
REMARK   35  A    between atoms: _111  and  _112
REMARK   36  A    between atoms: _111  and  _114
REMARK   37  A    between atoms: _114  and  _115
REMARK   38  A    between atoms: _115  and  _116
REMARK   39  A    between atoms: _118  and  _120
REMARK   40  A    between atoms: _120  and  _121
REMARK   41  A    between atoms: _120  and  _123
REMARK   42  A    between atoms: _123  and  _124
REMARK   43  A    between atoms: _130  and  _132
REMARK   44  A    between atoms: _132  and  _133
REMARK   45  A    between atoms: _132  and  _135
REMARK   46  A    between atoms: _135  and  _136
REMARK   47  A    between atoms: _136  and  _137
REMARK   48  A    between atoms: _142  and  _144
REMARK   49  A    between atoms: _144  and  _145
REMARK   50  A    between atoms: _144  and  _147
REMARK   51  A    between atoms: _147  and  _148
REMARK   52  A    between atoms: _154  and  _156
REMARK   53  A    between atoms: _156  and  _157
REMARK   54  A    between atoms: _156  and  _159
REMARK   55  A    between atoms: _159  and  _160
REMARK   56  A    between atoms: _164  and  ZN_436
REMARK   57  A    between atoms: _166  and  _167
REMARK   58  A    between atoms: _172  and  _174
REMARK   59  A    between atoms: _174  and  _175
REMARK   60  A    between atoms: _174  and  _177
REMARK   61  A    between atoms: _177  and  _178
REMARK   62  A    between atoms: _188  and  _190
REMARK   63  A    between atoms: _190  and  _191
REMARK   64  A    between atoms: _190  and  _193
REMARK   65  A    between atoms: _193  and  _194
REMARK   66  A    between atoms: _197  and  _199
REMARK   67  A    between atoms: _199  and  _200
REMARK   68  A    between atoms: _199  and  _202
REMARK   69  A    between atoms: _202  and  _203
REMARK   70  A    between atoms: _203  and  _204
REMARK   71  A    between atoms: _206  and  _208
REMARK   72  A    between atoms: _208  and  _209
REMARK   73  A    between atoms: _208  and  _211
REMARK   74  A    between atoms: _211  and  _212
REMARK   75  A    between atoms: _212  and  _213
REMARK   76  A    between atoms: _215  and  _217
REMARK   77  A    between atoms: _217  and  _218
REMARK   78  A    between atoms: _217  and  _220
REMARK   79  A    between atoms: _220  and  _221
REMARK   80  A    between atoms: _232  and  _233
REMARK   81  A    between atoms: _238  and  _240
REMARK   82  A    between atoms: _240  and  _241
REMARK   83  A    between atoms: _240  and  _243
REMARK   84  A    between atoms: _243  and  _244
REMARK   85  A    between atoms: _254  and  _256
REMARK   86  A    between atoms: _256  and  _257
REMARK   87  A    between atoms: _256  and  _259
REMARK   88  A    between atoms: _259  and  _260
REMARK   89  A    between atoms: _263  and  _265
REMARK   90  A    between atoms: _265  and  _266
REMARK   91  A    between atoms: _265  and  _268
REMARK   92  A    between atoms: _268  and  _269
REMARK   93  A    between atoms: _269  and  _270
REMARK   94  A    between atoms: _272  and  _274
REMARK   95  A    between atoms: _274  and  _275
REMARK   96  A    between atoms: _278  and  _280
REMARK   97  A    between atoms: _280  and  _281
REMARK   98  A    between atoms: _280  and  _283
REMARK   99  A    between atoms: _283  and  _284
REMARK  100  A    between atoms: _289  and  _291
REMARK  101  A    between atoms: _291  and  _292
REMARK  102  A    between atoms: _291  and  _294
REMARK  103  A    between atoms: _294  and  _295
REMARK  104  A    between atoms: _298  and  _300
REMARK  105  A    between atoms: _300  and  _301
REMARK  106  A    between atoms: _300  and  _303
REMARK  107  A    between atoms: _303  and  _304
REMARK  108  A    between atoms: _309  and  _311
REMARK  109  A    between atoms: _311  and  _312
REMARK  110  A    between atoms: _311  and  _314
REMARK  111  A    between atoms: _314  and  _315
REMARK  112  A    between atoms: _318  and  _320
REMARK  113  A    between atoms: _320  and  _321
REMARK  114  A    between atoms: _320  and  _323
REMARK  115  A    between atoms: _323  and  _324
REMARK  116  A    between atoms: _324  and  _325
REMARK  117  A    between atoms: _325  and  ZN_436
REMARK  118  A    between atoms: _327  and  _329
REMARK  119  A    between atoms: _329  and  _330
REMARK  120  A    between atoms: _329  and  _332
REMARK  121  A    between atoms: _332  and  _333
REMARK  122  A    between atoms: _338  and  _339
REMARK  123  A    between atoms: _342  and  _343
REMARK  124  A    between atoms: _348  and  _350
REMARK  125  A    between atoms: _350  and  _351
REMARK  126  A    between atoms: _350  and  _353
REMARK  127  A    between atoms: _353  and  _354
REMARK  128  A    between atoms: _361  and  _362
REMARK  129  A    between atoms: _367  and  _369
REMARK  130  A    between atoms: _369  and  _370
REMARK  131  A    between atoms: _369  and  _372
REMARK  132  A    between atoms: _372  and  _373
REMARK  133  A    between atoms: _376  and  _378
REMARK  134  A    between atoms: _378  and  _379
REMARK  135  A    between atoms: _381  and  _383
REMARK  136  A    between atoms: _383  and  _384
REMARK  137  A    between atoms: _383  and  _386
REMARK  138  A    between atoms: _386  and  _387
REMARK  139  A    between atoms: _387  and  _388
REMARK  140  A    between atoms: _391  and  _393
REMARK  141  A    between atoms: _393  and  _394
REMARK  142  A    between atoms: _393  and  _396
REMARK  143  A    between atoms: _396  and  _397
REMARK  144  A    between atoms: _397  and  _398
REMARK  145  A    between atoms: _398  and  _399
REMARK  146  A    between atoms: _408  and  _410
REMARK  147  A    between atoms: _410  and  _411
REMARK  148  A    between atoms: _410  and  _413
REMARK  149  A    between atoms: _413  and  _414
REMARK  150  A    between atoms: _419  and  _421
REMARK  151  A    between atoms: _421  and  _422
REMARK  152  A    between atoms: _421  and  _424
REMARK  153  A    between atoms: _424  and  _425
REMARK  154  A    between atoms: _425  and  _426
REMARK  155  A    between atoms: _426  and  _427
REMARK                            x       y       z     vdW  Elec       q    Type
REMARK                         _______ _______ _______ _____ _____    ______ ____
ROOT
ATOM      1  C   PRO A   4       1.220 -20.774  10.822  0.00  0.00    +0.241 C 
ATOM      2  N   VAL A   5       2.293 -20.002  10.940  0.00  0.00    -0.297 N 
ATOM      3  H   VAL A   5       2.166 -18.980  11.084  0.00  0.00    +0.150 HD
ATOM      4  O   PRO A   4       1.277 -21.976  10.616  0.00  0.00    -0.273 OA
ENDROOT
BRANCH   1  11
ATOM      5  C   VAL A   3       0.245 -19.192  13.257  0.00  0.00    +0.244 C 
ATOM      6  O   VAL A   3       0.716 -20.257  13.675  0.00  0.00    -0.273 OA
ATOM      7  N   PRO A   4      -0.120 -19.011  11.974  0.00  0.00    -0.272 N 
ATOM      8  CD  PRO A   4      -0.641 -17.771  11.388  0.00  0.00    +0.094 C 
ATOM      9  CG  PRO A   4      -1.414 -18.273  10.212  0.00  0.00    +0.024 C 
ATOM     10  CB  PRO A   4      -0.609 -19.432   9.721  0.00  0.00    +0.031 C 
ATOM     11  CA  PRO A   4      -0.145 -20.113  11.006  0.00  0.00    +0.152 C 
BRANCH   5  12
ATOM     12  CA  VAL A   3       0.013 -18.023  14.226  0.00  0.00    +0.149 C 
BRANCH  12  14
ATOM     13  C   THR A   2      -1.721 -19.170  15.476  0.00  0.00    +0.243 C 
ATOM     14  N   VAL A   3      -0.512 -18.617  15.436  0.00  0.00    -0.297 N 
ATOM     15  H   VAL A   3       0.071 -18.612  16.297  0.00  0.00    +0.150 HD
ATOM     16  O   THR A   2      -2.511 -19.108  14.542  0.00  0.00    -0.273 OA
BRANCH  13  17
ATOM     17  CA  THR A   2      -2.116 -19.858  16.778  0.00  0.00    +0.176 C 
BRANCH  17  20
ATOM     18  C   SER A   1      -4.401 -19.060  17.105  0.00  0.00    +0.241 C 
ATOM     19  O   SER A   1      -4.002 -17.921  17.337  0.00  0.00    -0.274 OA
ATOM     20  N   THR A   2      -3.567 -20.069  16.858  0.00  0.00    -0.295 N 
ATOM     21  H   THR A   2      -3.951 -21.025  16.719  0.00  0.00    +0.150 HD
BRANCH  18  22
ATOM     22  CA  SER A   1      -5.903 -19.370  17.134  0.00  0.00    +0.174 C 
BRANCH  22  23
ATOM     23  N   SER A   1      -6.623 -18.275  17.760  0.00  0.00    -0.236 NA
ATOM     24  H   SER A   1      -6.485 -17.300  17.424  0.00  0.00    +0.142 HD
ENDBRANCH  22  23
BRANCH  22  25
ATOM     25  CB  SER A   1      -6.478 -19.696  15.739  0.00  0.00    +0.163 C 
BRANCH  25  26
ATOM     26  OG  SER A   1      -6.438 -18.591  14.843  0.00  0.00    -0.380 OA
ATOM     27  H   SER A   1      -6.819 -18.862  13.970  0.00  0.00    +0.211 HD
ENDBRANCH  25  26
ENDBRANCH  22  25
ENDBRANCH  18  22
ENDBRANCH  17  20
BRANCH  17  28
ATOM     28  CB  THR A   2      -1.327 -21.181  16.898  0.00  0.00    +0.137 C 
ATOM     29  CG2 THR A   2      -1.619 -22.066  15.706  0.00  0.00    +0.034 C 
BRANCH  28  30
ATOM     30  OG1 THR A   2       0.084 -20.911  16.991  0.00  0.00    -0.382 OA
ATOM     31  HG1 THR A   2       0.260 -20.354  17.790  0.00  0.00    +0.210 HD
ENDBRANCH  28  30
ENDBRANCH  17  28
ENDBRANCH  13  17
ENDBRANCH  12  14
BRANCH  12  32
ATOM     32  CB  VAL A   3       1.324 -17.284  14.503  0.00  0.00    +0.027 C 
ATOM     33  CG2 VAL A   3       1.103 -16.202  15.534  0.00  0.00    +0.002 C 
ATOM     34  CG1 VAL A   3       1.917 -16.703  13.214  0.00  0.00    +0.002 C 
ENDBRANCH  12  32
ENDBRANCH   5  12
ENDBRANCH   1  11
BRANCH   2  35
ATOM     35  CA  VAL A   5       3.648 -20.545  10.874  0.00  0.00    +0.149 C 
BRANCH  35  36
ATOM     36  C   VAL A   5       3.939 -21.633  11.942  0.00  0.00    +0.241 C 
ATOM     37  N   MET A   6       3.078 -21.742  12.951  0.00  0.00    -0.297 N 
ATOM     38  H   MET A   6       2.265 -21.095  12.999  0.00  0.00    +0.150 HD
ATOM     39  O   VAL A   5       4.924 -22.379  11.830  0.00  0.00    -0.273 OA
BRANCH  37  40
ATOM     40  CA  MET A   6       3.252 -22.756  13.997  0.00  0.00    +0.149 C 
BRANCH  40  41
ATOM     41  C   MET A   6       2.604 -24.103  13.618  0.00  0.00    +0.241 C 
ATOM     42  O   MET A   6       2.783 -25.106  14.309  0.00  0.00    -0.273 OA
ATOM     43  N   PHE A   7       1.853 -24.124  12.520  0.00  0.00    -0.298 N 
ATOM     44  H   PHE A   7       1.707 -23.242  11.990  0.00  0.00    +0.150 HD
BRANCH  43  45
ATOM     45  CA  PHE A   7       1.231 -25.350  12.042  0.00  0.00    +0.141 C 
BRANCH  45  46
ATOM     46  C   PHE A   7       2.208 -26.531  12.034  0.00  0.00    +0.227 C 
ATOM     47  O   PHE A   7       1.861 -27.632  12.460  0.00  0.00    -0.286 OA
ENDBRANCH  45  46
BRANCH  45  48
ATOM     48  CB  PHE A   7       0.697 -25.150  10.629  0.00  0.00    +0.054 C 
BRANCH  48  49
ATOM     49  CG  PHE A   7      -0.543 -24.314  10.550  0.00  0.00    -0.020 A 
ATOM     50  CD2 PHE A   7      -1.333 -24.119  11.657  0.00  0.00    -0.004 A 
ATOM     51  CE2 PHE A   7      -2.477 -23.357  11.571  0.00  0.00    -0.000 A 
ATOM     52  CZ  PHE A   7      -2.851 -22.777  10.368  0.00  0.00    -0.000 A 
ATOM     53  CE1 PHE A   7      -2.071 -22.971   9.250  0.00  0.00    -0.000 A 
ATOM     54  CD1 PHE A   7      -0.925 -23.737   9.345  0.00  0.00    -0.004 A 
ENDBRANCH  48  49
ENDBRANCH  45  48
ENDBRANCH  43  45
ENDBRANCH  40  41
BRANCH  40  55
ATOM     55  CB  MET A   6       2.688 -22.268  15.335  0.00  0.00    +0.041 C 
BRANCH  55  56
ATOM     56  CG  MET A   6       3.298 -20.962  15.869  0.00  0.00    +0.060 C 
BRANCH  56  57
ATOM     57  SD  MET A   6       5.038 -21.183  16.272  0.00  0.00    -0.139 S 
ATOM     58  CE  MET A   6       4.927 -22.312  17.667  0.00  0.00    +0.069 C 
ENDBRANCH  56  57
ENDBRANCH  55  56
ENDBRANCH  40  55
ENDBRANCH  37  40
ENDBRANCH  35  36
BRANCH  35  59
ATOM     59  CB  VAL A   5       4.694 -19.410  10.959  0.00  0.00    +0.027 C 
ATOM     60  CG2 VAL A   5       4.739 -18.848  12.369  0.00  0.00    +0.002 C 
ATOM     61  CG1 VAL A   5       6.058 -19.904  10.534  0.00  0.00    +0.002 C 
ENDBRANCH  35  59
ENDBRANCH   2  35
TORSDOF 24
REMARK  Name = ../refined-set-2016/4ih3/4ih3_pocket.pdb
REMARK  155 active torsions:
REMARK  status: ('A' for Active; 'I' for Inactive)
REMARK    1  A    between atoms: _1  and  _3
REMARK    2  A    between atoms: _14  and  _17
REMARK    3  A    between atoms: _17  and  _18
REMARK    4  A    between atoms: _22  and  _23
REMARK    5  A    between atoms: _31  and  _33
REMARK    6  A    between atoms: _33  and  _34
REMARK    7  A    between atoms: _33  and  _36
REMARK    8  A    between atoms: _36  and  _37
REMARK    9  A    between atoms: _40  and  _42
REMARK   10  A    between atoms: _42  and  _43
REMARK   11  A    between atoms: _42  and  _45
REMARK   12  A    between atoms: _45  and  _46
REMARK   13  A    between atoms: _52  and  _54
REMARK   14  A    between atoms: _54  and  _55
REMARK   15  A    between atoms: _54  and  _57
REMARK   16  A    between atoms: _57  and  _58
REMARK   17  A    between atoms: _58  and  _59
REMARK   18  A    between atoms: _59  and  _60
REMARK   19  A    between atoms: _69  and  _71
REMARK   20  A    between atoms: _71  and  _72
REMARK   21  A    between atoms: _71  and  _74
REMARK   22  A    between atoms: _74  and  _75
REMARK   23  A    between atoms: _77  and  _79
REMARK   24  A    between atoms: _79  and  _80
REMARK   25  A    between atoms: _79  and  _82
REMARK   26  A    between atoms: _82  and  _83
REMARK   27  A    between atoms: _86  and  _88
REMARK   28  A    between atoms: _88  and  _89
REMARK   29  A    between atoms: _88  and  _91
REMARK   30  A    between atoms: _95  and  _96
REMARK   31  A    between atoms: _101  and  _103
REMARK   32  A    between atoms: _103  and  _104
REMARK   33  A    between atoms: _103  and  _106
REMARK   34  A    between atoms: _109  and  _111
REMARK   35  A    between atoms: _111  and  _112
REMARK   36  A    between atoms: _111  and  _114
REMARK   37  A    between atoms: _114  and  _115
REMARK   38  A    between atoms: _115  and  _116
REMARK   39  A    between atoms: _118  and  _120
REMARK   40  A    between atoms: _120  and  _121
REMARK   41  A    between atoms: _120  and  _123
REMARK   42  A    between atoms: _123  and  _124
REMARK   43  A    between atoms: _130  and  _132
REMARK   44  A    between atoms: _132  and  _133
REMARK   45  A    between atoms: _132  and  _135
REMARK   46  A    between atoms: _135  and  _136
REMARK   47  A    between atoms: _136  and  _137
REMARK   48  A    between atoms: _142  and  _144
REMARK   49  A    between atoms: _144  and  _145
REMARK   50  A    between atoms: _144  and  _147
REMARK   51  A    between atoms: _147  and  _148
REMARK   52  A    between atoms: _154  and  _156
REMARK   53  A    between atoms: _156  and  _157
REMARK   54  A    between atoms: _156  and  _159
REMARK   55  A    between atoms: _159  and  _160
REMARK   56  A    between atoms: _164  and  ZN_436
REMARK   57  A    between atoms: _166  and  _167
REMARK   58  A    between atoms: _172  and  _174
REMARK   59  A    between atoms: _174  and  _175
REMARK   60  A    between atoms: _174  and  _177
REMARK   61  A    between atoms: _177  and  _178
REMARK   62  A    between atoms: _188  and  _190
REMARK   63  A    between atoms: _190  and  _191
REMARK   64  A    between atoms: _190  and  _193
REMARK   65  A    between atoms: _193  and  _194
REMARK   66  A    between atoms: _197  and  _199
REMARK   67  A    between atoms: _199  and  _200
REMARK   68  A    between atoms: _199  and  _202
REMARK   69  A    between atoms: _202  and  _203
REMARK   70  A    between atoms: _203  and  _204
REMARK   71  A    between atoms: _206  and  _208
REMARK   72  A    between atoms: _208  and  _209
REMARK   73  A    between atoms: _208  and  _211
REMARK   74  A    between atoms: _211  and  _212
REMARK   75  A    between atoms: _212  and  _213
REMARK   76  A    between atoms: _215  and  _217
REMARK   77  A    between atoms: _217  and  _218
REMARK   78  A    between atoms: _217  and  _220
REMARK   79  A    between atoms: _220  and  _221
REMARK   80  A    between atoms: _232  and  _233
REMARK   81  A    between atoms: _238  and  _240
REMARK   82  A    between atoms: _240  and  _241
REMARK   83  A    between atoms: _240  and  _243
REMARK   84  A    between atoms: _243  and  _244
REMARK   85  A    between atoms: _254  and  _256
REMARK   86  A    between atoms: _256  and  _257
REMARK   87  A    between atoms: _256  and  _259
REMARK   88  A    between atoms: _259  and  _260
REMARK   89  A    between atoms: _263  and  _265
REMARK   90  A    between atoms: _265  and  _266
REMARK   91  A    between atoms: _265  and  _268
REMARK   92  A    between atoms: _268  and  _269
REMARK   93  A    between atoms: _269  and  _270
REMARK   94  A    between atoms: _272  and  _274
REMARK   95  A    between atoms: _274  and  _275
REMARK   96  A    between atoms: _278  and  _280
REMARK   97  A    between atoms: _280  and  _281
REMARK   98  A    between atoms: _280  and  _283
REMARK   99  A    between atoms: _283  and  _284
REMARK  100  A    between atoms: _289  and  _291
REMARK  101  A    between atoms: _291  and  _292
REMARK  102  A    between atoms: _291  and  _294
REMARK  103  A    between atoms: _294  and  _295
REMARK  104  A    between atoms: _298  and  _300
REMARK  105  A    between atoms: _300  and  _301
REMARK  106  A    between atoms: _300  and  _303
REMARK  107  A    between atoms: _303  and  _304
REMARK  108  A    between atoms: _309  and  _311
REMARK  109  A    between atoms: _311  and  _312
REMARK  110  A    between atoms: _311  and  _314
REMARK  111  A    between atoms: _314  and  _315
REMARK  112  A    between atoms: _318  and  _320
REMARK  113  A    between atoms: _320  and  _321
REMARK  114  A    between atoms: _320  and  _323
REMARK  115  A    between atoms: _323  and  _324
REMARK  116  A    between atoms: _324  and  _325
REMARK  117  A    between atoms: _325  and  ZN_436
REMARK  118  A    between atoms: _327  and  _329
REMARK  119  A    between atoms: _329  and  _330
REMARK  120  A    between atoms: _329  and  _332
REMARK  121  A    between atoms: _332  and  _333
REMARK  122  A    between atoms: _338  and  _339
REMARK  123  A    between atoms: _342  and  _343
REMARK  124  A    between atoms: _348  and  _350
REMARK  125  A    between atoms: _350  and  _351
REMARK  126  A    between atoms: _350  and  _353
REMARK  127  A    between atoms: _353  and  _354
REMARK  128  A    between atoms: _361  and  _362
REMARK  129  A    between atoms: _367  and  _369
REMARK  130  A    between atoms: _369  and  _370
REMARK  131  A    between atoms: _369  and  _372
REMARK  132  A    between atoms: _372  and  _373
REMARK  133  A    between atoms: _376  and  _378
REMARK  134  A    between atoms: _378  and  _379
REMARK  135  A    between atoms: _381  and  _383
REMARK  136  A    between atoms: _383  and  _384
REMARK  137  A    between atoms: _383  and  _386
REMARK  138  A    between atoms: _386  and  _387
REMARK  139  A    between atoms: _387  and  _388
REMARK  140  A    between atoms: _391  and  _393
REMARK  141  A    between atoms: _393  and  _394
REMARK  142  A    between atoms: _393  and  _396
REMARK  143  A    between atoms: _396  and  _397
REMARK  144  A    between atoms: _397  and  _398
REMARK  145  A    between atoms: _398  and  _399
REMARK  146  A    between atoms: _408  and  _410
REMARK  147  A    between atoms: _410  and  _411
REMARK  148  A    between atoms: _410  and  _413
REMARK  149  A    between atoms: _413  and  _414
REMARK  150  A    between atoms: _419  and  _421
REMARK  151  A    between atoms: _421  and  _422
REMARK  152  A    between atoms: _421  and  _424
REMARK  153  A    between atoms: _424  and  _425
REMARK  154  A    between atoms: _425  and  _426
REMARK  155  A    between atoms: _426  and  _427
REMARK                            x       y       z     vdW  Elec       q    Type
REMARK                         _______ _______ _______ _____ _____    ______ ____
ROOT
ATOM      1  CB  GLN A   1      -7.270 -22.430  13.040  0.00  0.00    +0.035 C 
ENDROOT
BRANCH   1   2
ATOM      2  CA  GLN A   1      -7.911 -23.759  12.655  0.00  0.00    +0.134 C 
BRANCH   2   3
ATOM      3  N   GLN A   1      -8.352 -24.486  13.833  0.00  0.00    -0.239 NA
ATOM      4  H   GLN A   1      -7.710 -24.576  14.646  0.00  0.00    +0.142 HD
ENDBRANCH   2   3
BRANCH   2   5
ATOM      5  C   GLN A   1      -6.915 -24.605  11.886  0.00  0.00    +0.224 C 
ATOM      6  O   GLN A   1      -6.022 -25.215  12.479  0.00  0.00    -0.287 OA
ENDBRANCH   2   5
ENDBRANCH   1   2
BRANCH   1   7
ATOM      7  CG  GLN A   1      -6.201 -21.978  12.069  0.00  0.00    +0.087 C 
BRANCH   7   8
ATOM      8  CD  GLN A   1      -5.569 -20.653  12.452  0.00  0.00    +0.219 C 
ATOM      9  NE2 GLN A   1      -4.502 -20.706  13.238  0.00  0.00    -0.329 N 
ATOM     10 HE21 GLN A   1      -4.147 -21.625  13.572  0.00  0.00    +0.145 HD
ATOM     11 HE22 GLN A   1      -4.020 -19.829  13.521  0.00  0.00    +0.145 HD
ATOM     12  OE1 GLN A   1      -6.028 -19.597  12.031  0.00  0.00    -0.275 OA
ENDBRANCH   7   8
ENDBRANCH   1   7
TORSDOF 5
REMARK  Name = ../refined-set-2016/4ih3/4ih3_pocket.pdb
REMARK  155 active torsions:
REMARK  status: ('A' for Active; 'I' for Inactive)
REMARK    1  A    between atoms: _1  and  _3
REMARK    2  A    between atoms: _14  and  _17
REMARK    3  A    between atoms: _17  and  _18
REMARK    4  A    between atoms: _22  and  _23
REMARK    5  A    between atoms: _31  and  _33
REMARK    6  A    between atoms: _33  and  _34
REMARK    7  A    between atoms: _33  and  _36
REMARK    8  A    between atoms: _36  and  _37
REMARK    9  A    between atoms: _40  and  _42
REMARK   10  A    between atoms: _42  and  _43
REMARK   11  A    between atoms: _42  and  _45
REMARK   12  A    between atoms: _45  and  _46
REMARK   13  A    between atoms: _52  and  _54
REMARK   14  A    between atoms: _54  and  _55
REMARK   15  A    between atoms: _54  and  _57
REMARK   16  A    between atoms: _57  and  _58
REMARK   17  A    between atoms: _58  and  _59
REMARK   18  A    between atoms: _59  and  _60
REMARK   19  A    between atoms: _69  and  _71
REMARK   20  A    between atoms: _71  and  _72
REMARK   21  A    between atoms: _71  and  _74
REMARK   22  A    between atoms: _74  and  _75
REMARK   23  A    between atoms: _77  and  _79
REMARK   24  A    between atoms: _79  and  _80
REMARK   25  A    between atoms: _79  and  _82
REMARK   26  A    between atoms: _82  and  _83
REMARK   27  A    between atoms: _86  and  _88
REMARK   28  A    between atoms: _88  and  _89
REMARK   29  A    between atoms: _88  and  _91
REMARK   30  A    between atoms: _95  and  _96
REMARK   31  A    between atoms: _101  and  _103
REMARK   32  A    between atoms: _103  and  _104
REMARK   33  A    between atoms: _103  and  _106
REMARK   34  A    between atoms: _109  and  _111
REMARK   35  A    between atoms: _111  and  _112
REMARK   36  A    between atoms: _111  and  _114
REMARK   37  A    between atoms: _114  and  _115
REMARK   38  A    between atoms: _115  and  _116
REMARK   39  A    between atoms: _118  and  _120
REMARK   40  A    between atoms: _120  and  _121
REMARK   41  A    between atoms: _120  and  _123
REMARK   42  A    between atoms: _123  and  _124
REMARK   43  A    between atoms: _130  and  _132
REMARK   44  A    between atoms: _132  and  _133
REMARK   45  A    between atoms: _132  and  _135
REMARK   46  A    between atoms: _135  and  _136
REMARK   47  A    between atoms: _136  and  _137
REMARK   48  A    between atoms: _142  and  _144
REMARK   49  A    between atoms: _144  and  _145
REMARK   50  A    between atoms: _144  and  _147
REMARK   51  A    between atoms: _147  and  _148
REMARK   52  A    between atoms: _154  and  _156
REMARK   53  A    between atoms: _156  and  _157
REMARK   54  A    between atoms: _156  and  _159
REMARK   55  A    between atoms: _159  and  _160
REMARK   56  A    between atoms: _164  and  ZN_436
REMARK   57  A    between atoms: _166  and  _167
REMARK   58  A    between atoms: _172  and  _174
REMARK   59  A    between atoms: _174  and  _175
REMARK   60  A    between atoms: _174  and  _177
REMARK   61  A    between atoms: _177  and  _178
REMARK   62  A    between atoms: _188  and  _190
REMARK   63  A    between atoms: _190  and  _191
REMARK   64  A    between atoms: _190  and  _193
REMARK   65  A    between atoms: _193  and  _194
REMARK   66  A    between atoms: _197  and  _199
REMARK   67  A    between atoms: _199  and  _200
REMARK   68  A    between atoms: _199  and  _202
REMARK   69  A    between atoms: _202  and  _203
REMARK   70  A    between atoms: _203  and  _204
REMARK   71  A    between atoms: _206  and  _208
REMARK   72  A    between atoms: _208  and  _209
REMARK   73  A    between atoms: _208  and  _211
REMARK   74  A    between atoms: _211  and  _212
REMARK   75  A    between atoms: _212  and  _213
REMARK   76  A    between atoms: _215  and  _217
REMARK   77  A    between atoms: _217  and  _218
REMARK   78  A    between atoms: _217  and  _220
REMARK   79  A    between atoms: _220  and  _221
REMARK   80  A    between atoms: _232  and  _233
REMARK   81  A    between atoms: _238  and  _240
REMARK   82  A    between atoms: _240  and  _241
REMARK   83  A    between atoms: _240  and  _243
REMARK   84  A    between atoms: _243  and  _244
REMARK   85  A    between atoms: _254  and  _256
REMARK   86  A    between atoms: _256  and  _257
REMARK   87  A    between atoms: _256  and  _259
REMARK   88  A    between atoms: _259  and  _260
REMARK   89  A    between atoms: _263  and  _265
REMARK   90  A    between atoms: _265  and  _266
REMARK   91  A    between atoms: _265  and  _268
REMARK   92  A    between atoms: _268  and  _269
REMARK   93  A    between atoms: _269  and  _270
REMARK   94  A    between atoms: _272  and  _274
REMARK   95  A    between atoms: _274  and  _275
REMARK   96  A    between atoms: _278  and  _280
REMARK   97  A    between atoms: _280  and  _281
REMARK   98  A    between atoms: _280  and  _283
REMARK   99  A    between atoms: _283  and  _284
REMARK  100  A    between atoms: _289  and  _291
REMARK  101  A    between atoms: _291  and  _292
REMARK  102  A    between atoms: _291  and  _294
REMARK  103  A    between atoms: _294  and  _295
REMARK  104  A    between atoms: _298  and  _300
REMARK  105  A    between atoms: _300  and  _301
REMARK  106  A    between atoms: _300  and  _303
REMARK  107  A    between atoms: _303  and  _304
REMARK  108  A    between atoms: _309  and  _311
REMARK  109  A    between atoms: _311  and  _312
REMARK  110  A    between atoms: _311  and  _314
REMARK  111  A    between atoms: _314  and  _315
REMARK  112  A    between atoms: _318  and  _320
REMARK  113  A    between atoms: _320  and  _321
REMARK  114  A    between atoms: _320  and  _323
REMARK  115  A    between atoms: _323  and  _324
REMARK  116  A    between atoms: _324  and  _325
REMARK  117  A    between atoms: _325  and  ZN_436
REMARK  118  A    between atoms: _327  and  _329
REMARK  119  A    between atoms: _329  and  _330
REMARK  120  A    between atoms: _329  and  _332
REMARK  121  A    between atoms: _332  and  _333
REMARK  122  A    between atoms: _338  and  _339
REMARK  123  A    between atoms: _342  and  _343
REMARK  124  A    between atoms: _348  and  _350
REMARK  125  A    between atoms: _350  and  _351
REMARK  126  A    between atoms: _350  and  _353
REMARK  127  A    between atoms: _353  and  _354
REMARK  128  A    between atoms: _361  and  _362
REMARK  129  A    between atoms: _367  and  _369
REMARK  130  A    between atoms: _369  and  _370
REMARK  131  A    between atoms: _369  and  _372
REMARK  132  A    between atoms: _372  and  _373
REMARK  133  A    between atoms: _376  and  _378
REMARK  134  A    between atoms: _378  and  _379
REMARK  135  A    between atoms: _381  and  _383
REMARK  136  A    between atoms: _383  and  _384
REMARK  137  A    between atoms: _383  and  _386
REMARK  138  A    between atoms: _386  and  _387
REMARK  139  A    between atoms: _387  and  _388
REMARK  140  A    between atoms: _391  and  _393
REMARK  141  A    between atoms: _393  and  _394
REMARK  142  A    between atoms: _393  and  _396
REMARK  143  A    between atoms: _396  and  _397
REMARK  144  A    between atoms: _397  and  _398
REMARK  145  A    between atoms: _398  and  _399
REMARK  146  A    between atoms: _408  and  _410
REMARK  147  A    between atoms: _410  and  _411
REMARK  148  A    between atoms: _410  and  _413
REMARK  149  A    between atoms: _413  and  _414
REMARK  150  A    between atoms: _419  and  _421
REMARK  151  A    between atoms: _421  and  _422
REMARK  152  A    between atoms: _421  and  _424
REMARK  153  A    between atoms: _424  and  _425
REMARK  154  A    between atoms: _425  and  _426
REMARK  155  A    between atoms: _426  and  _427
REMARK                            x       y       z     vdW  Elec       q    Type
REMARK                         _______ _______ _______ _____ _____    ______ ____
ROOT
ATOM      1  CB  PHE A   1     -11.208 -21.207  11.220  0.00  0.00    +0.051 C 
ENDROOT
BRANCH   1   2
ATOM      2  CG  PHE A   1     -10.710 -19.877  10.726  0.00  0.00    -0.020 A 
ATOM      3  CD2 PHE A   1      -9.357 -19.587  10.714  0.00  0.00    -0.004 A 
ATOM      4  CE2 PHE A   1      -8.891 -18.362  10.254  0.00  0.00    -0.000 A 
ATOM      5  CZ  PHE A   1      -9.777 -17.419   9.808  0.00  0.00    -0.000 A 
ATOM      6  CE1 PHE A   1     -11.132 -17.695   9.825  0.00  0.00    -0.000 A 
ATOM      7  CD1 PHE A   1     -11.590 -18.912  10.292  0.00  0.00    -0.004 A 
ENDBRANCH   1   2
BRANCH   1   8
ATOM      8  CA  PHE A   1     -11.497 -22.217  10.111  0.00  0.00    +0.137 C 
BRANCH   8   9
ATOM      9  N   PHE A   1     -11.969 -23.475  10.682  0.00  0.00    -0.239 NA
ATOM     10  H   PHE A   1     -11.497 -23.847  11.531  0.00  0.00    +0.142 HD
ENDBRANCH   8   9
BRANCH   8  11
ATOM     11  C   PHE A   1     -10.229 -22.494   9.308  0.00  0.00    +0.224 C 
ATOM     12  O   PHE A   1      -9.192 -22.813   9.889  0.00  0.00    -0.287 OA
ENDBRANCH   8  11
ENDBRANCH   1   8
TORSDOF 4
REMARK  Name = ../refined-set-2016/4ih3/4ih3_pocket.pdb
REMARK  155 active torsions:
REMARK  status: ('A' for Active; 'I' for Inactive)
REMARK    1  A    between atoms: _1  and  _3
REMARK    2  A    between atoms: _14  and  _17
REMARK    3  A    between atoms: _17  and  _18
REMARK    4  A    between atoms: _22  and  _23
REMARK    5  A    between atoms: _31  and  _33
REMARK    6  A    between atoms: _33  and  _34
REMARK    7  A    between atoms: _33  and  _36
REMARK    8  A    between atoms: _36  and  _37
REMARK    9  A    between atoms: _40  and  _42
REMARK   10  A    between atoms: _42  and  _43
REMARK   11  A    between atoms: _42  and  _45
REMARK   12  A    between atoms: _45  and  _46
REMARK   13  A    between atoms: _52  and  _54
REMARK   14  A    between atoms: _54  and  _55
REMARK   15  A    between atoms: _54  and  _57
REMARK   16  A    between atoms: _57  and  _58
REMARK   17  A    between atoms: _58  and  _59
REMARK   18  A    between atoms: _59  and  _60
REMARK   19  A    between atoms: _69  and  _71
REMARK   20  A    between atoms: _71  and  _72
REMARK   21  A    between atoms: _71  and  _74
REMARK   22  A    between atoms: _74  and  _75
REMARK   23  A    between atoms: _77  and  _79
REMARK   24  A    between atoms: _79  and  _80
REMARK   25  A    between atoms: _79  and  _82
REMARK   26  A    between atoms: _82  and  _83
REMARK   27  A    between atoms: _86  and  _88
REMARK   28  A    between atoms: _88  and  _89
REMARK   29  A    between atoms: _88  and  _91
REMARK   30  A    between atoms: _95  and  _96
REMARK   31  A    between atoms: _101  and  _103
REMARK   32  A    between atoms: _103  and  _104
REMARK   33  A    between atoms: _103  and  _106
REMARK   34  A    between atoms: _109  and  _111
REMARK   35  A    between atoms: _111  and  _112
REMARK   36  A    between atoms: _111  and  _114
REMARK   37  A    between atoms: _114  and  _115
REMARK   38  A    between atoms: _115  and  _116
REMARK   39  A    between atoms: _118  and  _120
REMARK   40  A    between atoms: _120  and  _121
REMARK   41  A    between atoms: _120  and  _123
REMARK   42  A    between atoms: _123  and  _124
REMARK   43  A    between atoms: _130  and  _132
REMARK   44  A    between atoms: _132  and  _133
REMARK   45  A    between atoms: _132  and  _135
REMARK   46  A    between atoms: _135  and  _136
REMARK   47  A    between atoms: _136  and  _137
REMARK   48  A    between atoms: _142  and  _144
REMARK   49  A    between atoms: _144  and  _145
REMARK   50  A    between atoms: _144  and  _147
REMARK   51  A    between atoms: _147  and  _148
REMARK   52  A    between atoms: _154  and  _156
REMARK   53  A    between atoms: _156  and  _157
REMARK   54  A    between atoms: _156  and  _159
REMARK   55  A    between atoms: _159  and  _160
REMARK   56  A    between atoms: _164  and  ZN_436
REMARK   57  A    between atoms: _166  and  _167
REMARK   58  A    between atoms: _172  and  _174
REMARK   59  A    between atoms: _174  and  _175
REMARK   60  A    between atoms: _174  and  _177
REMARK   61  A    between atoms: _177  and  _178
REMARK   62  A    between atoms: _188  and  _190
REMARK   63  A    between atoms: _190  and  _191
REMARK   64  A    between atoms: _190  and  _193
REMARK   65  A    between atoms: _193  and  _194
REMARK   66  A    between atoms: _197  and  _199
REMARK   67  A    between atoms: _199  and  _200
REMARK   68  A    between atoms: _199  and  _202
REMARK   69  A    between atoms: _202  and  _203
REMARK   70  A    between atoms: _203  and  _204
REMARK   71  A    between atoms: _206  and  _208
REMARK   72  A    between atoms: _208  and  _209
REMARK   73  A    between atoms: _208  and  _211
REMARK   74  A    between atoms: _211  and  _212
REMARK   75  A    between atoms: _212  and  _213
REMARK   76  A    between atoms: _215  and  _217
REMARK   77  A    between atoms: _217  and  _218
REMARK   78  A    between atoms: _217  and  _220
REMARK   79  A    between atoms: _220  and  _221
REMARK   80  A    between atoms: _232  and  _233
REMARK   81  A    between atoms: _238  and  _240
REMARK   82  A    between atoms: _240  and  _241
REMARK   83  A    between atoms: _240  and  _243
REMARK   84  A    between atoms: _243  and  _244
REMARK   85  A    between atoms: _254  and  _256
REMARK   86  A    between atoms: _256  and  _257
REMARK   87  A    between atoms: _256  and  _259
REMARK   88  A    between atoms: _259  and  _260
REMARK   89  A    between atoms: _263  and  _265
REMARK   90  A    between atoms: _265  and  _266
REMARK   91  A    between atoms: _265  and  _268
REMARK   92  A    between atoms: _268  and  _269
REMARK   93  A    between atoms: _269  and  _270
REMARK   94  A    between atoms: _272  and  _274
REMARK   95  A    between atoms: _274  and  _275
REMARK   96  A    between atoms: _278  and  _280
REMARK   97  A    between atoms: _280  and  _281
REMARK   98  A    between atoms: _280  and  _283
REMARK   99  A    between atoms: _283  and  _284
REMARK  100  A    between atoms: _289  and  _291
REMARK  101  A    between atoms: _291  and  _292
REMARK  102  A    between atoms: _291  and  _294
REMARK  103  A    between atoms: _294  and  _295
REMARK  104  A    between atoms: _298  and  _300
REMARK  105  A    between atoms: _300  and  _301
REMARK  106  A    between atoms: _300  and  _303
REMARK  107  A    between atoms: _303  and  _304
REMARK  108  A    between atoms: _309  and  _311
REMARK  109  A    between atoms: _311  and  _312
REMARK  110  A    between atoms: _311  and  _314
REMARK  111  A    between atoms: _314  and  _315
REMARK  112  A    between atoms: _318  and  _320
REMARK  113  A    between atoms: _320  and  _321
REMARK  114  A    between atoms: _320  and  _323
REMARK  115  A    between atoms: _323  and  _324
REMARK  116  A    between atoms: _324  and  _325
REMARK  117  A    between atoms: _325  and  ZN_436
REMARK  118  A    between atoms: _327  and  _329
REMARK  119  A    between atoms: _329  and  _330
REMARK  120  A    between atoms: _329  and  _332
REMARK  121  A    between atoms: _332  and  _333
REMARK  122  A    between atoms: _338  and  _339
REMARK  123  A    between atoms: _342  and  _343
REMARK  124  A    between atoms: _348  and  _350
REMARK  125  A    between atoms: _350  and  _351
REMARK  126  A    between atoms: _350  and  _353
REMARK  127  A    between atoms: _353  and  _354
REMARK  128  A    between atoms: _361  and  _362
REMARK  129  A    between atoms: _367  and  _369
REMARK  130  A    between atoms: _369  and  _370
REMARK  131  A    between atoms: _369  and  _372
REMARK  132  A    between atoms: _372  and  _373
REMARK  133  A    between atoms: _376  and  _378
REMARK  134  A    between atoms: _378  and  _379
REMARK  135  A    between atoms: _381  and  _383
REMARK  136  A    between atoms: _383  and  _384
REMARK  137  A    between atoms: _383  and  _386
REMARK  138  A    between atoms: _386  and  _387
REMARK  139  A    between atoms: _387  and  _388
REMARK  140  A    between atoms: _391  and  _393
REMARK  141  A    between atoms: _393  and  _394
REMARK  142  A    between atoms: _393  and  _396
REMARK  143  A    between atoms: _396  and  _397
REMARK  144  A    between atoms: _397  and  _398
REMARK  145  A    between atoms: _398  and  _399
REMARK  146  A    between atoms: _408  and  _410
REMARK  147  A    between atoms: _410  and  _411
REMARK  148  A    between atoms: _410  and  _413
REMARK  149  A    between atoms: _413  and  _414
REMARK  150  A    between atoms: _419  and  _421
REMARK  151  A    between atoms: _421  and  _422
REMARK  152  A    between atoms: _421  and  _424
REMARK  153  A    between atoms: _424  and  _425
REMARK  154  A    between atoms: _425  and  _426
REMARK  155  A    between atoms: _426  and  _427
REMARK                            x       y       z     vdW  Elec       q    Type
REMARK                         _______ _______ _______ _____ _____    ______ ____
ROOT
ATOM      1  CA  MET A   1       7.842 -16.980  -0.856  0.00  0.00    +0.134 C 
ENDROOT
BRANCH   1   2
ATOM      2  N   MET A   1       7.222 -18.194  -1.381  0.00  0.00    -0.239 NA
ATOM      3  H   MET A   1       7.747 -19.092  -1.362  0.00  0.00    +0.142 HD
ENDBRANCH   1   2
BRANCH   1   4
ATOM      4  C   MET A   1       9.035 -16.534  -1.688  0.00  0.00    +0.224 C 
ATOM      5  O   MET A   1       9.650 -15.504  -1.399  0.00  0.00    -0.287 OA
ENDBRANCH   1   4
BRANCH   1   6
ATOM      6  CB  MET A   1       8.287 -17.199   0.593  0.00  0.00    +0.037 C 
BRANCH   6   7
ATOM      7  CG  MET A   1       7.235 -17.857   1.482  0.00  0.00    +0.059 C 
BRANCH   7   8
ATOM      8  SD  MET A   1       6.294 -16.698   2.499  0.00  0.00    -0.139 S 
ATOM      9  CE  MET A   1       5.725 -17.800   3.809  0.00  0.00    +0.069 C 
ENDBRANCH   7   8
ENDBRANCH   6   7
ENDBRANCH   1   6
TORSDOF 5
REMARK  Name = ../refined-set-2016/4ih3/4ih3_pocket.pdb
REMARK  155 active torsions:
REMARK  status: ('A' for Active; 'I' for Inactive)
REMARK    1  A    between atoms: _1  and  _3
REMARK    2  A    between atoms: _14  and  _17
REMARK    3  A    between atoms: _17  and  _18
REMARK    4  A    between atoms: _22  and  _23
REMARK    5  A    between atoms: _31  and  _33
REMARK    6  A    between atoms: _33  and  _34
REMARK    7  A    between atoms: _33  and  _36
REMARK    8  A    between atoms: _36  and  _37
REMARK    9  A    between atoms: _40  and  _42
REMARK   10  A    between atoms: _42  and  _43
REMARK   11  A    between atoms: _42  and  _45
REMARK   12  A    between atoms: _45  and  _46
REMARK   13  A    between atoms: _52  and  _54
REMARK   14  A    between atoms: _54  and  _55
REMARK   15  A    between atoms: _54  and  _57
REMARK   16  A    between atoms: _57  and  _58
REMARK   17  A    between atoms: _58  and  _59
REMARK   18  A    between atoms: _59  and  _60
REMARK   19  A    between atoms: _69  and  _71
REMARK   20  A    between atoms: _71  and  _72
REMARK   21  A    between atoms: _71  and  _74
REMARK   22  A    between atoms: _74  and  _75
REMARK   23  A    between atoms: _77  and  _79
REMARK   24  A    between atoms: _79  and  _80
REMARK   25  A    between atoms: _79  and  _82
REMARK   26  A    between atoms: _82  and  _83
REMARK   27  A    between atoms: _86  and  _88
REMARK   28  A    between atoms: _88  and  _89
REMARK   29  A    between atoms: _88  and  _91
REMARK   30  A    between atoms: _95  and  _96
REMARK   31  A    between atoms: _101  and  _103
REMARK   32  A    between atoms: _103  and  _104
REMARK   33  A    between atoms: _103  and  _106
REMARK   34  A    between atoms: _109  and  _111
REMARK   35  A    between atoms: _111  and  _112
REMARK   36  A    between atoms: _111  and  _114
REMARK   37  A    between atoms: _114  and  _115
REMARK   38  A    between atoms: _115  and  _116
REMARK   39  A    between atoms: _118  and  _120
REMARK   40  A    between atoms: _120  and  _121
REMARK   41  A    between atoms: _120  and  _123
REMARK   42  A    between atoms: _123  and  _124
REMARK   43  A    between atoms: _130  and  _132
REMARK   44  A    between atoms: _132  and  _133
REMARK   45  A    between atoms: _132  and  _135
REMARK   46  A    between atoms: _135  and  _136
REMARK   47  A    between atoms: _136  and  _137
REMARK   48  A    between atoms: _142  and  _144
REMARK   49  A    between atoms: _144  and  _145
REMARK   50  A    between atoms: _144  and  _147
REMARK   51  A    between atoms: _147  and  _148
REMARK   52  A    between atoms: _154  and  _156
REMARK   53  A    between atoms: _156  and  _157
REMARK   54  A    between atoms: _156  and  _159
REMARK   55  A    between atoms: _159  and  _160
REMARK   56  A    between atoms: _164  and  ZN_436
REMARK   57  A    between atoms: _166  and  _167
REMARK   58  A    between atoms: _172  and  _174
REMARK   59  A    between atoms: _174  and  _175
REMARK   60  A    between atoms: _174  and  _177
REMARK   61  A    between atoms: _177  and  _178
REMARK   62  A    between atoms: _188  and  _190
REMARK   63  A    between atoms: _190  and  _191
REMARK   64  A    between atoms: _190  and  _193
REMARK   65  A    between atoms: _193  and  _194
REMARK   66  A    between atoms: _197  and  _199
REMARK   67  A    between atoms: _199  and  _200
REMARK   68  A    between atoms: _199  and  _202
REMARK   69  A    between atoms: _202  and  _203
REMARK   70  A    between atoms: _203  and  _204
REMARK   71  A    between atoms: _206  and  _208
REMARK   72  A    between atoms: _208  and  _209
REMARK   73  A    between atoms: _208  and  _211
REMARK   74  A    between atoms: _211  and  _212
REMARK   75  A    between atoms: _212  and  _213
REMARK   76  A    between atoms: _215  and  _217
REMARK   77  A    between atoms: _217  and  _218
REMARK   78  A    between atoms: _217  and  _220
REMARK   79  A    between atoms: _220  and  _221
REMARK   80  A    between atoms: _232  and  _233
REMARK   81  A    between atoms: _238  and  _240
REMARK   82  A    between atoms: _240  and  _241
REMARK   83  A    between atoms: _240  and  _243
REMARK   84  A    between atoms: _243  and  _244
REMARK   85  A    between atoms: _254  and  _256
REMARK   86  A    between atoms: _256  and  _257
REMARK   87  A    between atoms: _256  and  _259
REMARK   88  A    between atoms: _259  and  _260
REMARK   89  A    between atoms: _263  and  _265
REMARK   90  A    between atoms: _265  and  _266
REMARK   91  A    between atoms: _265  and  _268
REMARK   92  A    between atoms: _268  and  _269
REMARK   93  A    between atoms: _269  and  _270
REMARK   94  A    between atoms: _272  and  _274
REMARK   95  A    between atoms: _274  and  _275
REMARK   96  A    between atoms: _278  and  _280
REMARK   97  A    between atoms: _280  and  _281
REMARK   98  A    between atoms: _280  and  _283
REMARK   99  A    between atoms: _283  and  _284
REMARK  100  A    between atoms: _289  and  _291
REMARK  101  A    between atoms: _291  and  _292
REMARK  102  A    between atoms: _291  and  _294
REMARK  103  A    between atoms: _294  and  _295
REMARK  104  A    between atoms: _298  and  _300
REMARK  105  A    between atoms: _300  and  _301
REMARK  106  A    between atoms: _300  and  _303
REMARK  107  A    between atoms: _303  and  _304
REMARK  108  A    between atoms: _309  and  _311
REMARK  109  A    between atoms: _311  and  _312
REMARK  110  A    between atoms: _311  and  _314
REMARK  111  A    between atoms: _314  and  _315
REMARK  112  A    between atoms: _318  and  _320
REMARK  113  A    between atoms: _320  and  _321
REMARK  114  A    between atoms: _320  and  _323
REMARK  115  A    between atoms: _323  and  _324
REMARK  116  A    between atoms: _324  and  _325
REMARK  117  A    between atoms: _325  and  ZN_436
REMARK  118  A    between atoms: _327  and  _329
REMARK  119  A    between atoms: _329  and  _330
REMARK  120  A    between atoms: _329  and  _332
REMARK  121  A    between atoms: _332  and  _333
REMARK  122  A    between atoms: _338  and  _339
REMARK  123  A    between atoms: _342  and  _343
REMARK  124  A    between atoms: _348  and  _350
REMARK  125  A    between atoms: _350  and  _351
REMARK  126  A    between atoms: _350  and  _353
REMARK  127  A    between atoms: _353  and  _354
REMARK  128  A    between atoms: _361  and  _362
REMARK  129  A    between atoms: _367  and  _369
REMARK  130  A    between atoms: _369  and  _370
REMARK  131  A    between atoms: _369  and  _372
REMARK  132  A    between atoms: _372  and  _373
REMARK  133  A    between atoms: _376  and  _378
REMARK  134  A    between atoms: _378  and  _379
REMARK  135  A    between atoms: _381  and  _383
REMARK  136  A    between atoms: _383  and  _384
REMARK  137  A    between atoms: _383  and  _386
REMARK  138  A    between atoms: _386  and  _387
REMARK  139  A    between atoms: _387  and  _388
REMARK  140  A    between atoms: _391  and  _393
REMARK  141  A    between atoms: _393  and  _394
REMARK  142  A    between atoms: _393  and  _396
REMARK  143  A    between atoms: _396  and  _397
REMARK  144  A    between atoms: _397  and  _398
REMARK  145  A    between atoms: _398  and  _399
REMARK  146  A    between atoms: _408  and  _410
REMARK  147  A    between atoms: _410  and  _411
REMARK  148  A    between atoms: _410  and  _413
REMARK  149  A    between atoms: _413  and  _414
REMARK  150  A    between atoms: _419  and  _421
REMARK  151  A    between atoms: _421  and  _422
REMARK  152  A    between atoms: _421  and  _424
REMARK  153  A    between atoms: _424  and  _425
REMARK  154  A    between atoms: _425  and  _426
REMARK  155  A    between atoms: _426  and  _427
REMARK                            x       y       z     vdW  Elec       q    Type
REMARK                         _______ _______ _______ _____ _____    ______ ____
ROOT
ATOM      1  CG  TRP A   1       3.913  -7.843   1.990  0.00  0.00    -0.002 A 
ATOM      2  CD2 TRP A   1       3.126  -7.286   3.062  0.00  0.00    +0.013 A 
ATOM      3  CE2 TRP A   1       3.261  -8.150   4.168  0.00  0.00    +0.056 A 
ATOM      4  CZ2 TRP A   1       2.618  -7.910   5.401  0.00  0.00    +0.017 A 
ATOM      5  CH2 TRP A   1       1.841  -6.783   5.508  0.00  0.00    +0.001 A 
ATOM      6  CZ3 TRP A   1       1.686  -5.898   4.417  0.00  0.00    +0.000 A 
ATOM      7  NE1 TRP A   1       4.087  -9.176   3.786  0.00  0.00    -0.352 N 
ATOM      8  HE1 TRP A   1       4.377  -9.971   4.390  0.00  0.00    +0.166 HD
ATOM      9  CE3 TRP A   1       2.327  -6.138   3.194  0.00  0.00    +0.001 A 
ATOM     10  CD1 TRP A   1       4.470  -8.990   2.484  0.00  0.00    +0.068 A 
ENDROOT
BRANCH   1  11
ATOM     11  CB  TRP A   1       4.094  -7.279   0.586  0.00  0.00    +0.053 C 
BRANCH  11  12
ATOM     12  CA  TRP A   1       4.718  -8.283  -0.403  0.00  0.00    +0.137 C 
BRANCH  12  13
ATOM     13  N   TRP A   1       5.599  -7.602  -1.367  0.00  0.00    -0.239 NA
ATOM     14  H   TRP A   1       6.620  -7.796  -1.338  0.00  0.00    +0.142 HD
ENDBRANCH  12  13
BRANCH  12  15
ATOM     15  C   TRP A   1       3.637  -9.198  -1.054  0.00  0.00    +0.224 C 
ATOM     16  O   TRP A   1       2.631  -9.563  -0.422  0.00  0.00    -0.287 OA
ENDBRANCH  12  15
ENDBRANCH  11  12
ENDBRANCH   1  11
TORSDOF 4
REMARK  Name = ../refined-set-2016/4ih3/4ih3_pocket.pdb
REMARK  155 active torsions:
REMARK  status: ('A' for Active; 'I' for Inactive)
REMARK    1  A    between atoms: _1  and  _3
REMARK    2  A    between atoms: _14  and  _17
REMARK    3  A    between atoms: _17  and  _18
REMARK    4  A    between atoms: _22  and  _23
REMARK    5  A    between atoms: _31  and  _33
REMARK    6  A    between atoms: _33  and  _34
REMARK    7  A    between atoms: _33  and  _36
REMARK    8  A    between atoms: _36  and  _37
REMARK    9  A    between atoms: _40  and  _42
REMARK   10  A    between atoms: _42  and  _43
REMARK   11  A    between atoms: _42  and  _45
REMARK   12  A    between atoms: _45  and  _46
REMARK   13  A    between atoms: _52  and  _54
REMARK   14  A    between atoms: _54  and  _55
REMARK   15  A    between atoms: _54  and  _57
REMARK   16  A    between atoms: _57  and  _58
REMARK   17  A    between atoms: _58  and  _59
REMARK   18  A    between atoms: _59  and  _60
REMARK   19  A    between atoms: _69  and  _71
REMARK   20  A    between atoms: _71  and  _72
REMARK   21  A    between atoms: _71  and  _74
REMARK   22  A    between atoms: _74  and  _75
REMARK   23  A    between atoms: _77  and  _79
REMARK   24  A    between atoms: _79  and  _80
REMARK   25  A    between atoms: _79  and  _82
REMARK   26  A    between atoms: _82  and  _83
REMARK   27  A    between atoms: _86  and  _88
REMARK   28  A    between atoms: _88  and  _89
REMARK   29  A    between atoms: _88  and  _91
REMARK   30  A    between atoms: _95  and  _96
REMARK   31  A    between atoms: _101  and  _103
REMARK   32  A    between atoms: _103  and  _104
REMARK   33  A    between atoms: _103  and  _106
REMARK   34  A    between atoms: _109  and  _111
REMARK   35  A    between atoms: _111  and  _112
REMARK   36  A    between atoms: _111  and  _114
REMARK   37  A    between atoms: _114  and  _115
REMARK   38  A    between atoms: _115  and  _116
REMARK   39  A    between atoms: _118  and  _120
REMARK   40  A    between atoms: _120  and  _121
REMARK   41  A    between atoms: _120  and  _123
REMARK   42  A    between atoms: _123  and  _124
REMARK   43  A    between atoms: _130  and  _132
REMARK   44  A    between atoms: _132  and  _133
REMARK   45  A    between atoms: _132  and  _135
REMARK   46  A    between atoms: _135  and  _136
REMARK   47  A    between atoms: _136  and  _137
REMARK   48  A    between atoms: _142  and  _144
REMARK   49  A    between atoms: _144  and  _145
REMARK   50  A    between atoms: _144  and  _147
REMARK   51  A    between atoms: _147  and  _148
REMARK   52  A    between atoms: _154  and  _156
REMARK   53  A    between atoms: _156  and  _157
REMARK   54  A    between atoms: _156  and  _159
REMARK   55  A    between atoms: _159  and  _160
REMARK   56  A    between atoms: _164  and  ZN_436
REMARK   57  A    between atoms: _166  and  _167
REMARK   58  A    between atoms: _172  and  _174
REMARK   59  A    between atoms: _174  and  _175
REMARK   60  A    between atoms: _174  and  _177
REMARK   61  A    between atoms: _177  and  _178
REMARK   62  A    between atoms: _188  and  _190
REMARK   63  A    between atoms: _190  and  _191
REMARK   64  A    between atoms: _190  and  _193
REMARK   65  A    between atoms: _193  and  _194
REMARK   66  A    between atoms: _197  and  _199
REMARK   67  A    between atoms: _199  and  _200
REMARK   68  A    between atoms: _199  and  _202
REMARK   69  A    between atoms: _202  and  _203
REMARK   70  A    between atoms: _203  and  _204
REMARK   71  A    between atoms: _206  and  _208
REMARK   72  A    between atoms: _208  and  _209
REMARK   73  A    between atoms: _208  and  _211
REMARK   74  A    between atoms: _211  and  _212
REMARK   75  A    between atoms: _212  and  _213
REMARK   76  A    between atoms: _215  and  _217
REMARK   77  A    between atoms: _217  and  _218
REMARK   78  A    between atoms: _217  and  _220
REMARK   79  A    between atoms: _220  and  _221
REMARK   80  A    between atoms: _232  and  _233
REMARK   81  A    between atoms: _238  and  _240
REMARK   82  A    between atoms: _240  and  _241
REMARK   83  A    between atoms: _240  and  _243
REMARK   84  A    between atoms: _243  and  _244
REMARK   85  A    between atoms: _254  and  _256
REMARK   86  A    between atoms: _256  and  _257
REMARK   87  A    between atoms: _256  and  _259
REMARK   88  A    between atoms: _259  and  _260
REMARK   89  A    between atoms: _263  and  _265
REMARK   90  A    between atoms: _265  and  _266
REMARK   91  A    between atoms: _265  and  _268
REMARK   92  A    between atoms: _268  and  _269
REMARK   93  A    between atoms: _269  and  _270
REMARK   94  A    between atoms: _272  and  _274
REMARK   95  A    between atoms: _274  and  _275
REMARK   96  A    between atoms: _278  and  _280
REMARK   97  A    between atoms: _280  and  _281
REMARK   98  A    between atoms: _280  and  _283
REMARK   99  A    between atoms: _283  and  _284
REMARK  100  A    between atoms: _289  and  _291
REMARK  101  A    between atoms: _291  and  _292
REMARK  102  A    between atoms: _291  and  _294
REMARK  103  A    between atoms: _294  and  _295
REMARK  104  A    between atoms: _298  and  _300
REMARK  105  A    between atoms: _300  and  _301
REMARK  106  A    between atoms: _300  and  _303
REMARK  107  A    between atoms: _303  and  _304
REMARK  108  A    between atoms: _309  and  _311
REMARK  109  A    between atoms: _311  and  _312
REMARK  110  A    between atoms: _311  and  _314
REMARK  111  A    between atoms: _314  and  _315
REMARK  112  A    between atoms: _318  and  _320
REMARK  113  A    between atoms: _320  and  _321
REMARK  114  A    between atoms: _320  and  _323
REMARK  115  A    between atoms: _323  and  _324
REMARK  116  A    between atoms: _324  and  _325
REMARK  117  A    between atoms: _325  and  ZN_436
REMARK  118  A    between atoms: _327  and  _329
REMARK  119  A    between atoms: _329  and  _330
REMARK  120  A    between atoms: _329  and  _332
REMARK  121  A    between atoms: _332  and  _333
REMARK  122  A    between atoms: _338  and  _339
REMARK  123  A    between atoms: _342  and  _343
REMARK  124  A    between atoms: _348  and  _350
REMARK  125  A    between atoms: _350  and  _351
REMARK  126  A    between atoms: _350  and  _353
REMARK  127  A    between atoms: _353  and  _354
REMARK  128  A    between atoms: _361  and  _362
REMARK  129  A    between atoms: _367  and  _369
REMARK  130  A    between atoms: _369  and  _370
REMARK  131  A    between atoms: _369  and  _372
REMARK  132  A    between atoms: _372  and  _373
REMARK  133  A    between atoms: _376  and  _378
REMARK  134  A    between atoms: _378  and  _379
REMARK  135  A    between atoms: _381  and  _383
REMARK  136  A    between atoms: _383  and  _384
REMARK  137  A    between atoms: _383  and  _386
REMARK  138  A    between atoms: _386  and  _387
REMARK  139  A    between atoms: _387  and  _388
REMARK  140  A    between atoms: _391  and  _393
REMARK  141  A    between atoms: _393  and  _394
REMARK  142  A    between atoms: _393  and  _396
REMARK  143  A    between atoms: _396  and  _397
REMARK  144  A    between atoms: _397  and  _398
REMARK  145  A    between atoms: _398  and  _399
REMARK  146  A    between atoms: _408  and  _410
REMARK  147  A    between atoms: _410  and  _411
REMARK  148  A    between atoms: _410  and  _413
REMARK  149  A    between atoms: _413  and  _414
REMARK  150  A    between atoms: _419  and  _421
REMARK  151  A    between atoms: _421  and  _422
REMARK  152  A    between atoms: _421  and  _424
REMARK  153  A    between atoms: _424  and  _425
REMARK  154  A    between atoms: _425  and  _426
REMARK  155  A    between atoms: _426  and  _427
REMARK                            x       y       z     vdW  Elec       q    Type
REMARK                         _______ _______ _______ _____ _____    ______ ____
ROOT
ATOM      1  CA  TRP A   2       0.593 -11.762   1.220  0.00  0.00    +0.000 C 
ENDROOT
BRANCH   1   3
ATOM      2  C   PRO A   1       1.847 -13.359  -0.155  0.00  0.00    +0.000 C 
ATOM      3  N   TRP A   2       1.680 -12.125   0.309  0.00  0.00    +0.000 N 
ATOM      4  H   TRP A   2       2.349 -11.386   0.013  0.00  0.00    +0.000 HD
ATOM      5  O   PRO A   1       1.067 -14.287   0.061  0.00  0.00    +0.000 OA
BRANCH   2   7
ATOM      6  N   PRO A   1       3.443 -12.363  -1.726  0.00  0.00    +0.000 NA
ATOM      7  CA  PRO A   1       3.070 -13.590  -1.028  0.00  0.00    +0.000 C 
ATOM      8  CB  PRO A   1       4.287 -13.880  -0.161  0.00  0.00    +0.000 C 
ATOM      9  CG  PRO A   1       5.417 -13.219  -0.862  0.00  0.00    +0.000 C 
ATOM     10  CD  PRO A   1       4.849 -11.997  -1.499  0.00  0.00    +0.000 C 
ENDBRANCH   2   7
ENDBRANCH   1   3
BRANCH   1  11
ATOM     11  C   TRP A   2      -0.594 -11.065   0.529  0.00  0.00    +0.000 C 
ATOM     12  O   TRP A   2      -1.749 -11.398   0.797  0.00  0.00    +0.000 OA
ATOM     13  N   LEU A   3      -0.326 -10.096  -0.345  0.00  0.00    +0.000 N 
ATOM     14  H   LEU A   3       0.658  -9.822  -0.543  0.00  0.00    +0.000 HD
BRANCH  13  15
ATOM     15  CA  LEU A   3      -1.435  -9.422  -1.023  0.00  0.00    +0.000 C 
BRANCH  15  16
ATOM     16  C   LEU A   3      -2.174 -10.344  -2.019  0.00  0.00    +0.000 C 
ATOM     17  O   LEU A   3      -3.386 -10.224  -2.188  0.00  0.00    +0.000 OA
ENDBRANCH  15  16
BRANCH  15  18
ATOM     18  CB  LEU A   3      -0.985  -8.110  -1.689  0.00  0.00    +0.000 C 
BRANCH  18  19
ATOM     19  CG  LEU A   3       0.144  -7.369  -0.956  0.00  0.00    +0.000 C 
ATOM     20  CD2 LEU A   3      -0.214  -7.168   0.498  0.00  0.00    +0.000 C 
ATOM     21  CD1 LEU A   3       0.513  -6.037  -1.622  0.00  0.00    +0.000 C 
ENDBRANCH  18  19
ENDBRANCH  15  18
ENDBRANCH  13  15
ENDBRANCH   1  11
BRANCH   1  22
ATOM     22  CB  TRP A   2       1.123 -10.901   2.383  0.00  0.00    +0.000 C 
BRANCH  22  23
ATOM     23  CG  TRP A   2       1.491 -11.693   3.609  0.00  0.00    +0.000 A 
ATOM     24  CD1 TRP A   2       0.714 -11.896   4.712  0.00  0.00    +0.000 A 
ATOM     25  NE1 TRP A   2       1.376 -12.680   5.619  0.00  0.00    +0.000 N 
ATOM     26  HE1 TRP A   2       1.001 -12.985   6.540  0.00  0.00    +0.000 HD
ATOM     27  CE2 TRP A   2       2.610 -12.997   5.119  0.00  0.00    +0.000 A 
ATOM     28  CZ2 TRP A   2       3.632 -13.761   5.673  0.00  0.00    +0.000 A 
ATOM     29  CH2 TRP A   2       4.769 -13.923   4.936  0.00  0.00    +0.000 A 
ATOM     30  CZ3 TRP A   2       4.910 -13.333   3.670  0.00  0.00    +0.000 A 
ATOM     31  CE3 TRP A   2       3.896 -12.571   3.120  0.00  0.00    +0.000 A 
ATOM     32  CD2 TRP A   2       2.721 -12.390   3.853  0.00  0.00    +0.000 A 
ENDBRANCH  22  23
ENDBRANCH   1  22
TORSDOF 9
REMARK  Name = ../refined-set-2016/4ih3/4ih3_pocket.pdb
REMARK  155 active torsions:
REMARK  status: ('A' for Active; 'I' for Inactive)
REMARK    1  A    between atoms: _1  and  _3
REMARK    2  A    between atoms: _14  and  _17
REMARK    3  A    between atoms: _17  and  _18
REMARK    4  A    between atoms: _22  and  _23
REMARK    5  A    between atoms: _31  and  _33
REMARK    6  A    between atoms: _33  and  _34
REMARK    7  A    between atoms: _33  and  _36
REMARK    8  A    between atoms: _36  and  _37
REMARK    9  A    between atoms: _40  and  _42
REMARK   10  A    between atoms: _42  and  _43
REMARK   11  A    between atoms: _42  and  _45
REMARK   12  A    between atoms: _45  and  _46
REMARK   13  A    between atoms: _52  and  _54
REMARK   14  A    between atoms: _54  and  _55
REMARK   15  A    between atoms: _54  and  _57
REMARK   16  A    between atoms: _57  and  _58
REMARK   17  A    between atoms: _58  and  _59
REMARK   18  A    between atoms: _59  and  _60
REMARK   19  A    between atoms: _69  and  _71
REMARK   20  A    between atoms: _71  and  _72
REMARK   21  A    between atoms: _71  and  _74
REMARK   22  A    between atoms: _74  and  _75
REMARK   23  A    between atoms: _77  and  _79
REMARK   24  A    between atoms: _79  and  _80
REMARK   25  A    between atoms: _79  and  _82
REMARK   26  A    between atoms: _82  and  _83
REMARK   27  A    between atoms: _86  and  _88
REMARK   28  A    between atoms: _88  and  _89
REMARK   29  A    between atoms: _88  and  _91
REMARK   30  A    between atoms: _95  and  _96
REMARK   31  A    between atoms: _101  and  _103
REMARK   32  A    between atoms: _103  and  _104
REMARK   33  A    between atoms: _103  and  _106
REMARK   34  A    between atoms: _109  and  _111
REMARK   35  A    between atoms: _111  and  _112
REMARK   36  A    between atoms: _111  and  _114
REMARK   37  A    between atoms: _114  and  _115
REMARK   38  A    between atoms: _115  and  _116
REMARK   39  A    between atoms: _118  and  _120
REMARK   40  A    between atoms: _120  and  _121
REMARK   41  A    between atoms: _120  and  _123
REMARK   42  A    between atoms: _123  and  _124
REMARK   43  A    between atoms: _130  and  _132
REMARK   44  A    between atoms: _132  and  _133
REMARK   45  A    between atoms: _132  and  _135
REMARK   46  A    between atoms: _135  and  _136
REMARK   47  A    between atoms: _136  and  _137
REMARK   48  A    between atoms: _142  and  _144
REMARK   49  A    between atoms: _144  and  _145
REMARK   50  A    between atoms: _144  and  _147
REMARK   51  A    between atoms: _147  and  _148
REMARK   52  A    between atoms: _154  and  _156
REMARK   53  A    between atoms: _156  and  _157
REMARK   54  A    between atoms: _156  and  _159
REMARK   55  A    between atoms: _159  and  _160
REMARK   56  A    between atoms: _164  and  ZN_436
REMARK   57  A    between atoms: _166  and  _167
REMARK   58  A    between atoms: _172  and  _174
REMARK   59  A    between atoms: _174  and  _175
REMARK   60  A    between atoms: _174  and  _177
REMARK   61  A    between atoms: _177  and  _178
REMARK   62  A    between atoms: _188  and  _190
REMARK   63  A    between atoms: _190  and  _191
REMARK   64  A    between atoms: _190  and  _193
REMARK   65  A    between atoms: _193  and  _194
REMARK   66  A    between atoms: _197  and  _199
REMARK   67  A    between atoms: _199  and  _200
REMARK   68  A    between atoms: _199  and  _202
REMARK   69  A    between atoms: _202  and  _203
REMARK   70  A    between atoms: _203  and  _204
REMARK   71  A    between atoms: _206  and  _208
REMARK   72  A    between atoms: _208  and  _209
REMARK   73  A    between atoms: _208  and  _211
REMARK   74  A    between atoms: _211  and  _212
REMARK   75  A    between atoms: _212  and  _213
REMARK   76  A    between atoms: _215  and  _217
REMARK   77  A    between atoms: _217  and  _218
REMARK   78  A    between atoms: _217  and  _220
REMARK   79  A    between atoms: _220  and  _221
REMARK   80  A    between atoms: _232  and  _233
REMARK   81  A    between atoms: _238  and  _240
REMARK   82  A    between atoms: _240  and  _241
REMARK   83  A    between atoms: _240  and  _243
REMARK   84  A    between atoms: _243  and  _244
REMARK   85  A    between atoms: _254  and  _256
REMARK   86  A    between atoms: _256  and  _257
REMARK   87  A    between atoms: _256  and  _259
REMARK   88  A    between atoms: _259  and  _260
REMARK   89  A    between atoms: _263  and  _265
REMARK   90  A    between atoms: _265  and  _266
REMARK   91  A    between atoms: _265  and  _268
REMARK   92  A    between atoms: _268  and  _269
REMARK   93  A    between atoms: _269  and  _270
REMARK   94  A    between atoms: _272  and  _274
REMARK   95  A    between atoms: _274  and  _275
REMARK   96  A    between atoms: _278  and  _280
REMARK   97  A    between atoms: _280  and  _281
REMARK   98  A    between atoms: _280  and  _283
REMARK   99  A    between atoms: _283  and  _284
REMARK  100  A    between atoms: _289  and  _291
REMARK  101  A    between atoms: _291  and  _292
REMARK  102  A    between atoms: _291  and  _294
REMARK  103  A    between atoms: _294  and  _295
REMARK  104  A    between atoms: _298  and  _300
REMARK  105  A    between atoms: _300  and  _301
REMARK  106  A    between atoms: _300  and  _303
REMARK  107  A    between atoms: _303  and  _304
REMARK  108  A    between atoms: _309  and  _311
REMARK  109  A    between atoms: _311  and  _312
REMARK  110  A    between atoms: _311  and  _314
REMARK  111  A    between atoms: _314  and  _315
REMARK  112  A    between atoms: _318  and  _320
REMARK  113  A    between atoms: _320  and  _321
REMARK  114  A    between atoms: _320  and  _323
REMARK  115  A    between atoms: _323  and  _324
REMARK  116  A    between atoms: _324  and  _325
REMARK  117  A    between atoms: _325  and  ZN_436
REMARK  118  A    between atoms: _327  and  _329
REMARK  119  A    between atoms: _329  and  _330
REMARK  120  A    between atoms: _329  and  _332
REMARK  121  A    between atoms: _332  and  _333
REMARK  122  A    between atoms: _338  and  _339
REMARK  123  A    between atoms: _342  and  _343
REMARK  124  A    between atoms: _348  and  _350
REMARK  125  A    between atoms: _350  and  _351
REMARK  126  A    between atoms: _350  and  _353
REMARK  127  A    between atoms: _353  and  _354
REMARK  128  A    between atoms: _361  and  _362
REMARK  129  A    between atoms: _367  and  _369
REMARK  130  A    between atoms: _369  and  _370
REMARK  131  A    between atoms: _369  and  _372
REMARK  132  A    between atoms: _372  and  _373
REMARK  133  A    between atoms: _376  and  _378
REMARK  134  A    between atoms: _378  and  _379
REMARK  135  A    between atoms: _381  and  _383
REMARK  136  A    between atoms: _383  and  _384
REMARK  137  A    between atoms: _383  and  _386
REMARK  138  A    between atoms: _386  and  _387
REMARK  139  A    between atoms: _387  and  _388
REMARK  140  A    between atoms: _391  and  _393
REMARK  141  A    between atoms: _393  and  _394
REMARK  142  A    between atoms: _393  and  _396
REMARK  143  A    between atoms: _396  and  _397
REMARK  144  A    between atoms: _397  and  _398
REMARK  145  A    between atoms: _398  and  _399
REMARK  146  A    between atoms: _408  and  _410
REMARK  147  A    between atoms: _410  and  _411
REMARK  148  A    between atoms: _410  and  _413
REMARK  149  A    between atoms: _413  and  _414
REMARK  150  A    between atoms: _419  and  _421
REMARK  151  A    between atoms: _421  and  _422
REMARK  152  A    between atoms: _421  and  _424
REMARK  153  A    between atoms: _424  and  _425
REMARK  154  A    between atoms: _425  and  _426
REMARK  155  A    between atoms: _426  and  _427
REMARK                            x       y       z     vdW  Elec       q    Type
REMARK                         _______ _______ _______ _____ _____    ______ ____
ROOT
ATOM      1  CA  MET A   1      -2.700 -15.609   0.211  0.00  0.00    +0.000 C 
ENDROOT
BRANCH   1   2
ATOM      2  N   MET A   1      -1.800 -15.139  -0.832  0.00  0.00    +0.000 NA
ATOM      3  H   MET A   1      -1.484 -14.148  -0.841  0.00  0.00    +0.000 HD
ENDBRANCH   1   2
BRANCH   1   4
ATOM      4  C   MET A   1      -4.130 -15.835  -0.276  0.00  0.00    +0.000 C 
ATOM      5  O   MET A   1      -4.660 -16.925  -0.118  0.00  0.00    +0.000 OA
ENDBRANCH   1   4
BRANCH   1   6
ATOM      6  CB  MET A   1      -2.653 -14.712   1.453  0.00  0.00    +0.000 C 
BRANCH   6   7
ATOM      7  CG  MET A   1      -1.848 -15.329   2.593  0.00  0.00    +0.000 C 
BRANCH   7   8
ATOM      8  SD  MET A   1      -1.826 -14.456   4.182  0.00  0.00    +0.000 S 
ATOM      9  CE  MET A   1      -3.549 -14.069   4.400  0.00  0.00    +0.000 C 
ENDBRANCH   7   8
ENDBRANCH   6   7
ENDBRANCH   1   6
TORSDOF 5
REMARK  Name = ../refined-set-2016/4ih3/4ih3_pocket.pdb
REMARK  155 active torsions:
REMARK  status: ('A' for Active; 'I' for Inactive)
REMARK    1  A    between atoms: _1  and  _3
REMARK    2  A    between atoms: _14  and  _17
REMARK    3  A    between atoms: _17  and  _18
REMARK    4  A    between atoms: _22  and  _23
REMARK    5  A    between atoms: _31  and  _33
REMARK    6  A    between atoms: _33  and  _34
REMARK    7  A    between atoms: _33  and  _36
REMARK    8  A    between atoms: _36  and  _37
REMARK    9  A    between atoms: _40  and  _42
REMARK   10  A    between atoms: _42  and  _43
REMARK   11  A    between atoms: _42  and  _45
REMARK   12  A    between atoms: _45  and  _46
REMARK   13  A    between atoms: _52  and  _54
REMARK   14  A    between atoms: _54  and  _55
REMARK   15  A    between atoms: _54  and  _57
REMARK   16  A    between atoms: _57  and  _58
REMARK   17  A    between atoms: _58  and  _59
REMARK   18  A    between atoms: _59  and  _60
REMARK   19  A    between atoms: _69  and  _71
REMARK   20  A    between atoms: _71  and  _72
REMARK   21  A    between atoms: _71  and  _74
REMARK   22  A    between atoms: _74  and  _75
REMARK   23  A    between atoms: _77  and  _79
REMARK   24  A    between atoms: _79  and  _80
REMARK   25  A    between atoms: _79  and  _82
REMARK   26  A    between atoms: _82  and  _83
REMARK   27  A    between atoms: _86  and  _88
REMARK   28  A    between atoms: _88  and  _89
REMARK   29  A    between atoms: _88  and  _91
REMARK   30  A    between atoms: _95  and  _96
REMARK   31  A    between atoms: _101  and  _103
REMARK   32  A    between atoms: _103  and  _104
REMARK   33  A    between atoms: _103  and  _106
REMARK   34  A    between atoms: _109  and  _111
REMARK   35  A    between atoms: _111  and  _112
REMARK   36  A    between atoms: _111  and  _114
REMARK   37  A    between atoms: _114  and  _115
REMARK   38  A    between atoms: _115  and  _116
REMARK   39  A    between atoms: _118  and  _120
REMARK   40  A    between atoms: _120  and  _121
REMARK   41  A    between atoms: _120  and  _123
REMARK   42  A    between atoms: _123  and  _124
REMARK   43  A    between atoms: _130  and  _132
REMARK   44  A    between atoms: _132  and  _133
REMARK   45  A    between atoms: _132  and  _135
REMARK   46  A    between atoms: _135  and  _136
REMARK   47  A    between atoms: _136  and  _137
REMARK   48  A    between atoms: _142  and  _144
REMARK   49  A    between atoms: _144  and  _145
REMARK   50  A    between atoms: _144  and  _147
REMARK   51  A    between atoms: _147  and  _148
REMARK   52  A    between atoms: _154  and  _156
REMARK   53  A    between atoms: _156  and  _157
REMARK   54  A    between atoms: _156  and  _159
REMARK   55  A    between atoms: _159  and  _160
REMARK   56  A    between atoms: _164  and  ZN_436
REMARK   57  A    between atoms: _166  and  _167
REMARK   58  A    between atoms: _172  and  _174
REMARK   59  A    between atoms: _174  and  _175
REMARK   60  A    between atoms: _174  and  _177
REMARK   61  A    between atoms: _177  and  _178
REMARK   62  A    between atoms: _188  and  _190
REMARK   63  A    between atoms: _190  and  _191
REMARK   64  A    between atoms: _190  and  _193
REMARK   65  A    between atoms: _193  and  _194
REMARK   66  A    between atoms: _197  and  _199
REMARK   67  A    between atoms: _199  and  _200
REMARK   68  A    between atoms: _199  and  _202
REMARK   69  A    between atoms: _202  and  _203
REMARK   70  A    between atoms: _203  and  _204
REMARK   71  A    between atoms: _206  and  _208
REMARK   72  A    between atoms: _208  and  _209
REMARK   73  A    between atoms: _208  and  _211
REMARK   74  A    between atoms: _211  and  _212
REMARK   75  A    between atoms: _212  and  _213
REMARK   76  A    between atoms: _215  and  _217
REMARK   77  A    between atoms: _217  and  _218
REMARK   78  A    between atoms: _217  and  _220
REMARK   79  A    between atoms: _220  and  _221
REMARK   80  A    between atoms: _232  and  _233
REMARK   81  A    between atoms: _238  and  _240
REMARK   82  A    between atoms: _240  and  _241
REMARK   83  A    between atoms: _240  and  _243
REMARK   84  A    between atoms: _243  and  _244
REMARK   85  A    between atoms: _254  and  _256
REMARK   86  A    between atoms: _256  and  _257
REMARK   87  A    between atoms: _256  and  _259
REMARK   88  A    between atoms: _259  and  _260
REMARK   89  A    between atoms: _263  and  _265
REMARK   90  A    between atoms: _265  and  _266
REMARK   91  A    between atoms: _265  and  _268
REMARK   92  A    between atoms: _268  and  _269
REMARK   93  A    between atoms: _269  and  _270
REMARK   94  A    between atoms: _272  and  _274
REMARK   95  A    between atoms: _274  and  _275
REMARK   96  A    between atoms: _278  and  _280
REMARK   97  A    between atoms: _280  and  _281
REMARK   98  A    between atoms: _280  and  _283
REMARK   99  A    between atoms: _283  and  _284
REMARK  100  A    between atoms: _289  and  _291
REMARK  101  A    between atoms: _291  and  _292
REMARK  102  A    between atoms: _291  and  _294
REMARK  103  A    between atoms: _294  and  _295
REMARK  104  A    between atoms: _298  and  _300
REMARK  105  A    between atoms: _300  and  _301
REMARK  106  A    between atoms: _300  and  _303
REMARK  107  A    between atoms: _303  and  _304
REMARK  108  A    between atoms: _309  and  _311
REMARK  109  A    between atoms: _311  and  _312
REMARK  110  A    between atoms: _311  and  _314
REMARK  111  A    between atoms: _314  and  _315
REMARK  112  A    between atoms: _318  and  _320
REMARK  113  A    between atoms: _320  and  _321
REMARK  114  A    between atoms: _320  and  _323
REMARK  115  A    between atoms: _323  and  _324
REMARK  116  A    between atoms: _324  and  _325
REMARK  117  A    between atoms: _325  and  ZN_436
REMARK  118  A    between atoms: _327  and  _329
REMARK  119  A    between atoms: _329  and  _330
REMARK  120  A    between atoms: _329  and  _332
REMARK  121  A    between atoms: _332  and  _333
REMARK  122  A    between atoms: _338  and  _339
REMARK  123  A    between atoms: _342  and  _343
REMARK  124  A    between atoms: _348  and  _350
REMARK  125  A    between atoms: _350  and  _351
REMARK  126  A    between atoms: _350  and  _353
REMARK  127  A    between atoms: _353  and  _354
REMARK  128  A    between atoms: _361  and  _362
REMARK  129  A    between atoms: _367  and  _369
REMARK  130  A    between atoms: _369  and  _370
REMARK  131  A    between atoms: _369  and  _372
REMARK  132  A    between atoms: _372  and  _373
REMARK  133  A    between atoms: _376  and  _378
REMARK  134  A    between atoms: _378  and  _379
REMARK  135  A    between atoms: _381  and  _383
REMARK  136  A    between atoms: _383  and  _384
REMARK  137  A    between atoms: _383  and  _386
REMARK  138  A    between atoms: _386  and  _387
REMARK  139  A    between atoms: _387  and  _388
REMARK  140  A    between atoms: _391  and  _393
REMARK  141  A    between atoms: _393  and  _394
REMARK  142  A    between atoms: _393  and  _396
REMARK  143  A    between atoms: _396  and  _397
REMARK  144  A    between atoms: _397  and  _398
REMARK  145  A    between atoms: _398  and  _399
REMARK  146  A    between atoms: _408  and  _410
REMARK  147  A    between atoms: _410  and  _411
REMARK  148  A    between atoms: _410  and  _413
REMARK  149  A    between atoms: _413  and  _414
REMARK  150  A    between atoms: _419  and  _421
REMARK  151  A    between atoms: _421  and  _422
REMARK  152  A    between atoms: _421  and  _424
REMARK  153  A    between atoms: _424  and  _425
REMARK  154  A    between atoms: _425  and  _426
REMARK  155  A    between atoms: _426  and  _427
REMARK                            x       y       z     vdW  Elec       q    Type
REMARK                         _______ _______ _______ _____ _____    ______ ____
ROOT
ATOM      1  CA  HIS A   2      -9.944 -13.170   3.883  0.00  0.00    +0.000 C 
ENDROOT
BRANCH   1   3
ATOM      2  C   ALA A   1     -10.254 -15.528   4.583  0.00  0.00    +0.000 C 
ATOM      3  N   HIS A   2     -10.062 -14.245   4.876  0.00  0.00    +0.000 N 
ATOM      4  H   HIS A   2      -9.990 -13.985   5.880  0.00  0.00    +0.000 HD
ATOM      5  O   ALA A   1     -10.517 -15.937   3.457  0.00  0.00    +0.000 OA
BRANCH   2   6
ATOM      6  CA  ALA A   1     -10.161 -16.495   5.767  0.00  0.00    +0.000 C 
ATOM      7  CB  ALA A   1      -8.715 -16.659   6.190  0.00  0.00    +0.000 C 
BRANCH   6   8
ATOM      8  N   ALA A   1     -10.723 -17.800   5.464  0.00  0.00    +0.000 NA
ATOM      9  H   ALA A   1     -10.073 -18.589   5.272  0.00  0.00    +0.000 HD
ENDBRANCH   6   8
ENDBRANCH   2   6
ENDBRANCH   1   3
BRANCH   1  10
ATOM     10  C   HIS A   2     -10.998 -13.091   2.775  0.00  0.00    +0.000 C 
ATOM     11  O   HIS A   2     -10.663 -12.959   1.597  0.00  0.00    +0.000 OA
ENDBRANCH   1  10
BRANCH   1  12
ATOM     12  CB  HIS A   2      -8.531 -13.153   3.289  0.00  0.00    +0.000 C 
BRANCH  12  13
ATOM     13  CG  HIS A   2      -7.452 -13.126   4.325  0.00  0.00    +0.000 A 
ATOM     14  ND1 HIS A   2      -7.344 -12.126   5.267  0.00  0.00    +0.000 NA
ATOM     15  CE1 HIS A   2      -6.305 -12.365   6.049  0.00  0.00    +0.000 A 
ATOM     16  NE2 HIS A   2      -5.738 -13.491   5.648  0.00  0.00    +0.000 NA
ATOM     17  CD2 HIS A   2      -6.434 -13.989   4.576  0.00  0.00    +0.000 A 
ENDBRANCH  12  13
ENDBRANCH   1  12
TORSDOF 6
REMARK  Name = ../refined-set-2016/4ih3/4ih3_pocket.pdb
REMARK  155 active torsions:
REMARK  status: ('A' for Active; 'I' for Inactive)
REMARK    1  A    between atoms: _1  and  _3
REMARK    2  A    between atoms: _14  and  _17
REMARK    3  A    between atoms: _17  and  _18
REMARK    4  A    between atoms: _22  and  _23
REMARK    5  A    between atoms: _31  and  _33
REMARK    6  A    between atoms: _33  and  _34
REMARK    7  A    between atoms: _33  and  _36
REMARK    8  A    between atoms: _36  and  _37
REMARK    9  A    between atoms: _40  and  _42
REMARK   10  A    between atoms: _42  and  _43
REMARK   11  A    between atoms: _42  and  _45
REMARK   12  A    between atoms: _45  and  _46
REMARK   13  A    between atoms: _52  and  _54
REMARK   14  A    between atoms: _54  and  _55
REMARK   15  A    between atoms: _54  and  _57
REMARK   16  A    between atoms: _57  and  _58
REMARK   17  A    between atoms: _58  and  _59
REMARK   18  A    between atoms: _59  and  _60
REMARK   19  A    between atoms: _69  and  _71
REMARK   20  A    between atoms: _71  and  _72
REMARK   21  A    between atoms: _71  and  _74
REMARK   22  A    between atoms: _74  and  _75
REMARK   23  A    between atoms: _77  and  _79
REMARK   24  A    between atoms: _79  and  _80
REMARK   25  A    between atoms: _79  and  _82
REMARK   26  A    between atoms: _82  and  _83
REMARK   27  A    between atoms: _86  and  _88
REMARK   28  A    between atoms: _88  and  _89
REMARK   29  A    between atoms: _88  and  _91
REMARK   30  A    between atoms: _95  and  _96
REMARK   31  A    between atoms: _101  and  _103
REMARK   32  A    between atoms: _103  and  _104
REMARK   33  A    between atoms: _103  and  _106
REMARK   34  A    between atoms: _109  and  _111
REMARK   35  A    between atoms: _111  and  _112
REMARK   36  A    between atoms: _111  and  _114
REMARK   37  A    between atoms: _114  and  _115
REMARK   38  A    between atoms: _115  and  _116
REMARK   39  A    between atoms: _118  and  _120
REMARK   40  A    between atoms: _120  and  _121
REMARK   41  A    between atoms: _120  and  _123
REMARK   42  A    between atoms: _123  and  _124
REMARK   43  A    between atoms: _130  and  _132
REMARK   44  A    between atoms: _132  and  _133
REMARK   45  A    between atoms: _132  and  _135
REMARK   46  A    between atoms: _135  and  _136
REMARK   47  A    between atoms: _136  and  _137
REMARK   48  A    between atoms: _142  and  _144
REMARK   49  A    between atoms: _144  and  _145
REMARK   50  A    between atoms: _144  and  _147
REMARK   51  A    between atoms: _147  and  _148
REMARK   52  A    between atoms: _154  and  _156
REMARK   53  A    between atoms: _156  and  _157
REMARK   54  A    between atoms: _156  and  _159
REMARK   55  A    between atoms: _159  and  _160
REMARK   56  A    between atoms: _164  and  ZN_436
REMARK   57  A    between atoms: _166  and  _167
REMARK   58  A    between atoms: _172  and  _174
REMARK   59  A    between atoms: _174  and  _175
REMARK   60  A    between atoms: _174  and  _177
REMARK   61  A    between atoms: _177  and  _178
REMARK   62  A    between atoms: _188  and  _190
REMARK   63  A    between atoms: _190  and  _191
REMARK   64  A    between atoms: _190  and  _193
REMARK   65  A    between atoms: _193  and  _194
REMARK   66  A    between atoms: _197  and  _199
REMARK   67  A    between atoms: _199  and  _200
REMARK   68  A    between atoms: _199  and  _202
REMARK   69  A    between atoms: _202  and  _203
REMARK   70  A    between atoms: _203  and  _204
REMARK   71  A    between atoms: _206  and  _208
REMARK   72  A    between atoms: _208  and  _209
REMARK   73  A    between atoms: _208  and  _211
REMARK   74  A    between atoms: _211  and  _212
REMARK   75  A    between atoms: _212  and  _213
REMARK   76  A    between atoms: _215  and  _217
REMARK   77  A    between atoms: _217  and  _218
REMARK   78  A    between atoms: _217  and  _220
REMARK   79  A    between atoms: _220  and  _221
REMARK   80  A    between atoms: _232  and  _233
REMARK   81  A    between atoms: _238  and  _240
REMARK   82  A    between atoms: _240  and  _241
REMARK   83  A    between atoms: _240  and  _243
REMARK   84  A    between atoms: _243  and  _244
REMARK   85  A    between atoms: _254  and  _256
REMARK   86  A    between atoms: _256  and  _257
REMARK   87  A    between atoms: _256  and  _259
REMARK   88  A    between atoms: _259  and  _260
REMARK   89  A    between atoms: _263  and  _265
REMARK   90  A    between atoms: _265  and  _266
REMARK   91  A    between atoms: _265  and  _268
REMARK   92  A    between atoms: _268  and  _269
REMARK   93  A    between atoms: _269  and  _270
REMARK   94  A    between atoms: _272  and  _274
REMARK   95  A    between atoms: _274  and  _275
REMARK   96  A    between atoms: _278  and  _280
REMARK   97  A    between atoms: _280  and  _281
REMARK   98  A    between atoms: _280  and  _283
REMARK   99  A    between atoms: _283  and  _284
REMARK  100  A    between atoms: _289  and  _291
REMARK  101  A    between atoms: _291  and  _292
REMARK  102  A    between atoms: _291  and  _294
REMARK  103  A    between atoms: _294  and  _295
REMARK  104  A    between atoms: _298  and  _300
REMARK  105  A    between atoms: _300  and  _301
REMARK  106  A    between atoms: _300  and  _303
REMARK  107  A    between atoms: _303  and  _304
REMARK  108  A    between atoms: _309  and  _311
REMARK  109  A    between atoms: _311  and  _312
REMARK  110  A    between atoms: _311  and  _314
REMARK  111  A    between atoms: _314  and  _315
REMARK  112  A    between atoms: _318  and  _320
REMARK  113  A    between atoms: _320  and  _321
REMARK  114  A    between atoms: _320  and  _323
REMARK  115  A    between atoms: _323  and  _324
REMARK  116  A    between atoms: _324  and  _325
REMARK  117  A    between atoms: _325  and  ZN_436
REMARK  118  A    between atoms: _327  and  _329
REMARK  119  A    between atoms: _329  and  _330
REMARK  120  A    between atoms: _329  and  _332
REMARK  121  A    between atoms: _332  and  _333
REMARK  122  A    between atoms: _338  and  _339
REMARK  123  A    between atoms: _342  and  _343
REMARK  124  A    between atoms: _348  and  _350
REMARK  125  A    between atoms: _350  and  _351
REMARK  126  A    between atoms: _350  and  _353
REMARK  127  A    between atoms: _353  and  _354
REMARK  128  A    between atoms: _361  and  _362
REMARK  129  A    between atoms: _367  and  _369
REMARK  130  A    between atoms: _369  and  _370
REMARK  131  A    between atoms: _369  and  _372
REMARK  132  A    between atoms: _372  and  _373
REMARK  133  A    between atoms: _376  and  _378
REMARK  134  A    between atoms: _378  and  _379
REMARK  135  A    between atoms: _381  and  _383
REMARK  136  A    between atoms: _383  and  _384
REMARK  137  A    between atoms: _383  and  _386
REMARK  138  A    between atoms: _386  and  _387
REMARK  139  A    between atoms: _387  and  _388
REMARK  140  A    between atoms: _391  and  _393
REMARK  141  A    between atoms: _393  and  _394
REMARK  142  A    between atoms: _393  and  _396
REMARK  143  A    between atoms: _396  and  _397
REMARK  144  A    between atoms: _397  and  _398
REMARK  145  A    between atoms: _398  and  _399
REMARK  146  A    between atoms: _408  and  _410
REMARK  147  A    between atoms: _410  and  _411
REMARK  148  A    between atoms: _410  and  _413
REMARK  149  A    between atoms: _413  and  _414
REMARK  150  A    between atoms: _419  and  _421
REMARK  151  A    between atoms: _421  and  _422
REMARK  152  A    between atoms: _421  and  _424
REMARK  153  A    between atoms: _424  and  _425
REMARK  154  A    between atoms: _425  and  _426
REMARK  155  A    between atoms: _426  and  _427
REMARK                            x       y       z     vdW  Elec       q    Type
REMARK                         _______ _______ _______ _____ _____    ______ ____
ROOT
ATOM      1  CA  LEU A   1     -11.667  -9.236   6.056  0.00  0.00    +0.000 C 
ENDROOT
BRANCH   1   2
ATOM      2  N   LEU A   1     -12.899 -10.014   6.220  0.00  0.00    +0.000 NA
ATOM      3  H   LEU A   1     -12.842 -11.036   6.401  0.00  0.00    +0.000 HD
ENDBRANCH   1   2
BRANCH   1   4
ATOM      4  C   LEU A   1     -11.360  -8.867   4.591  0.00  0.00    +0.000 C 
ATOM      5  O   LEU A   1     -10.419  -9.396   3.994  0.00  0.00    +0.000 OA
ENDBRANCH   1   4
BRANCH   1   6
ATOM      6  CB  LEU A   1     -10.474  -9.974   6.673  0.00  0.00    +0.000 C 
BRANCH   6   7
ATOM      7  CG  LEU A   1      -9.232  -9.131   6.958  0.00  0.00    +0.000 C 
ATOM      8  CD2 LEU A   1      -8.294  -9.859   7.885  0.00  0.00    +0.000 C 
ATOM      9  CD1 LEU A   1      -9.638  -7.816   7.591  0.00  0.00    +0.000 C 
ENDBRANCH   6   7
ENDBRANCH   1   6
TORSDOF 4
REMARK  Name = ../refined-set-2016/4ih3/4ih3_pocket.pdb
REMARK  155 active torsions:
REMARK  status: ('A' for Active; 'I' for Inactive)
REMARK    1  A    between atoms: _1  and  _3
REMARK    2  A    between atoms: _14  and  _17
REMARK    3  A    between atoms: _17  and  _18
REMARK    4  A    between atoms: _22  and  _23
REMARK    5  A    between atoms: _31  and  _33
REMARK    6  A    between atoms: _33  and  _34
REMARK    7  A    between atoms: _33  and  _36
REMARK    8  A    between atoms: _36  and  _37
REMARK    9  A    between atoms: _40  and  _42
REMARK   10  A    between atoms: _42  and  _43
REMARK   11  A    between atoms: _42  and  _45
REMARK   12  A    between atoms: _45  and  _46
REMARK   13  A    between atoms: _52  and  _54
REMARK   14  A    between atoms: _54  and  _55
REMARK   15  A    between atoms: _54  and  _57
REMARK   16  A    between atoms: _57  and  _58
REMARK   17  A    between atoms: _58  and  _59
REMARK   18  A    between atoms: _59  and  _60
REMARK   19  A    between atoms: _69  and  _71
REMARK   20  A    between atoms: _71  and  _72
REMARK   21  A    between atoms: _71  and  _74
REMARK   22  A    between atoms: _74  and  _75
REMARK   23  A    between atoms: _77  and  _79
REMARK   24  A    between atoms: _79  and  _80
REMARK   25  A    between atoms: _79  and  _82
REMARK   26  A    between atoms: _82  and  _83
REMARK   27  A    between atoms: _86  and  _88
REMARK   28  A    between atoms: _88  and  _89
REMARK   29  A    between atoms: _88  and  _91
REMARK   30  A    between atoms: _95  and  _96
REMARK   31  A    between atoms: _101  and  _103
REMARK   32  A    between atoms: _103  and  _104
REMARK   33  A    between atoms: _103  and  _106
REMARK   34  A    between atoms: _109  and  _111
REMARK   35  A    between atoms: _111  and  _112
REMARK   36  A    between atoms: _111  and  _114
REMARK   37  A    between atoms: _114  and  _115
REMARK   38  A    between atoms: _115  and  _116
REMARK   39  A    between atoms: _118  and  _120
REMARK   40  A    between atoms: _120  and  _121
REMARK   41  A    between atoms: _120  and  _123
REMARK   42  A    between atoms: _123  and  _124
REMARK   43  A    between atoms: _130  and  _132
REMARK   44  A    between atoms: _132  and  _133
REMARK   45  A    between atoms: _132  and  _135
REMARK   46  A    between atoms: _135  and  _136
REMARK   47  A    between atoms: _136  and  _137
REMARK   48  A    between atoms: _142  and  _144
REMARK   49  A    between atoms: _144  and  _145
REMARK   50  A    between atoms: _144  and  _147
REMARK   51  A    between atoms: _147  and  _148
REMARK   52  A    between atoms: _154  and  _156
REMARK   53  A    between atoms: _156  and  _157
REMARK   54  A    between atoms: _156  and  _159
REMARK   55  A    between atoms: _159  and  _160
REMARK   56  A    between atoms: _164  and  ZN_436
REMARK   57  A    between atoms: _166  and  _167
REMARK   58  A    between atoms: _172  and  _174
REMARK   59  A    between atoms: _174  and  _175
REMARK   60  A    between atoms: _174  and  _177
REMARK   61  A    between atoms: _177  and  _178
REMARK   62  A    between atoms: _188  and  _190
REMARK   63  A    between atoms: _190  and  _191
REMARK   64  A    between atoms: _190  and  _193
REMARK   65  A    between atoms: _193  and  _194
REMARK   66  A    between atoms: _197  and  _199
REMARK   67  A    between atoms: _199  and  _200
REMARK   68  A    between atoms: _199  and  _202
REMARK   69  A    between atoms: _202  and  _203
REMARK   70  A    between atoms: _203  and  _204
REMARK   71  A    between atoms: _206  and  _208
REMARK   72  A    between atoms: _208  and  _209
REMARK   73  A    between atoms: _208  and  _211
REMARK   74  A    between atoms: _211  and  _212
REMARK   75  A    between atoms: _212  and  _213
REMARK   76  A    between atoms: _215  and  _217
REMARK   77  A    between atoms: _217  and  _218
REMARK   78  A    between atoms: _217  and  _220
REMARK   79  A    between atoms: _220  and  _221
REMARK   80  A    between atoms: _232  and  _233
REMARK   81  A    between atoms: _238  and  _240
REMARK   82  A    between atoms: _240  and  _241
REMARK   83  A    between atoms: _240  and  _243
REMARK   84  A    between atoms: _243  and  _244
REMARK   85  A    between atoms: _254  and  _256
REMARK   86  A    between atoms: _256  and  _257
REMARK   87  A    between atoms: _256  and  _259
REMARK   88  A    between atoms: _259  and  _260
REMARK   89  A    between atoms: _263  and  _265
REMARK   90  A    between atoms: _265  and  _266
REMARK   91  A    between atoms: _265  and  _268
REMARK   92  A    between atoms: _268  and  _269
REMARK   93  A    between atoms: _269  and  _270
REMARK   94  A    between atoms: _272  and  _274
REMARK   95  A    between atoms: _274  and  _275
REMARK   96  A    between atoms: _278  and  _280
REMARK   97  A    between atoms: _280  and  _281
REMARK   98  A    between atoms: _280  and  _283
REMARK   99  A    between atoms: _283  and  _284
REMARK  100  A    between atoms: _289  and  _291
REMARK  101  A    between atoms: _291  and  _292
REMARK  102  A    between atoms: _291  and  _294
REMARK  103  A    between atoms: _294  and  _295
REMARK  104  A    between atoms: _298  and  _300
REMARK  105  A    between atoms: _300  and  _301
REMARK  106  A    between atoms: _300  and  _303
REMARK  107  A    between atoms: _303  and  _304
REMARK  108  A    between atoms: _309  and  _311
REMARK  109  A    between atoms: _311  and  _312
REMARK  110  A    between atoms: _311  and  _314
REMARK  111  A    between atoms: _314  and  _315
REMARK  112  A    between atoms: _318  and  _320
REMARK  113  A    between atoms: _320  and  _321
REMARK  114  A    between atoms: _320  and  _323
REMARK  115  A    between atoms: _323  and  _324
REMARK  116  A    between atoms: _324  and  _325
REMARK  117  A    between atoms: _325  and  ZN_436
REMARK  118  A    between atoms: _327  and  _329
REMARK  119  A    between atoms: _329  and  _330
REMARK  120  A    between atoms: _329  and  _332
REMARK  121  A    between atoms: _332  and  _333
REMARK  122  A    between atoms: _338  and  _339
REMARK  123  A    between atoms: _342  and  _343
REMARK  124  A    between atoms: _348  and  _350
REMARK  125  A    between atoms: _350  and  _351
REMARK  126  A    between atoms: _350  and  _353
REMARK  127  A    between atoms: _353  and  _354
REMARK  128  A    between atoms: _361  and  _362
REMARK  129  A    between atoms: _367  and  _369
REMARK  130  A    between atoms: _369  and  _370
REMARK  131  A    between atoms: _369  and  _372
REMARK  132  A    between atoms: _372  and  _373
REMARK  133  A    between atoms: _376  and  _378
REMARK  134  A    between atoms: _378  and  _379
REMARK  135  A    between atoms: _381  and  _383
REMARK  136  A    between atoms: _383  and  _384
REMARK  137  A    between atoms: _383  and  _386
REMARK  138  A    between atoms: _386  and  _387
REMARK  139  A    between atoms: _387  and  _388
REMARK  140  A    between atoms: _391  and  _393
REMARK  141  A    between atoms: _393  and  _394
REMARK  142  A    between atoms: _393  and  _396
REMARK  143  A    between atoms: _396  and  _397
REMARK  144  A    between atoms: _397  and  _398
REMARK  145  A    between atoms: _398  and  _399
REMARK  146  A    between atoms: _408  and  _410
REMARK  147  A    between atoms: _410  and  _411
REMARK  148  A    between atoms: _410  and  _413
REMARK  149  A    between atoms: _413  and  _414
REMARK  150  A    between atoms: _419  and  _421
REMARK  151  A    between atoms: _421  and  _422
REMARK  152  A    between atoms: _421  and  _424
REMARK  153  A    between atoms: _424  and  _425
REMARK  154  A    between atoms: _425  and  _426
REMARK  155  A    between atoms: _426  and  _427
REMARK                            x       y       z     vdW  Elec       q    Type
REMARK                         _______ _______ _______ _____ _____    ______ ____
ROOT
ATOM      1  CB  HIS A   1      -9.799  -3.726   3.102  0.00  0.00    +0.000 C 
ENDROOT
BRANCH   1   2
ATOM      2  CG  HIS A   1      -8.804  -4.601   3.797  0.00  0.00    +0.000 A 
ATOM      3  CD2 HIS A   1      -8.099  -4.420   4.937  0.00  0.00    +0.000 A 
ATOM      4  NE2 HIS A   1      -7.330  -5.545   5.121  0.00  0.00    +0.000 NA
ATOM      5  CE1 HIS A   1      -7.560  -6.388   4.131  0.00  0.00    +0.000 A 
ATOM      6  ND1 HIS A   1      -8.448  -5.846   3.318  0.00  0.00    +0.000 NA
ENDBRANCH   1   2
BRANCH   1   7
ATOM      7  CA  HIS A   1     -11.223  -3.885   3.623  0.00  0.00    +0.000 C 
BRANCH   7   8
ATOM      8  N   HIS A   1     -11.629  -5.286   3.590  0.00  0.00    +0.000 NA
ATOM      9  H   HIS A   1     -11.941  -5.736   4.474  0.00  0.00    +0.000 HD
ENDBRANCH   7   8
BRANCH   7  10
ATOM     10  C   HIS A   1     -12.167  -2.897   2.922  0.00  0.00    +0.000 C 
ATOM     11  O   HIS A   1     -12.581  -1.895   3.504  0.00  0.00    +0.000 OA
ENDBRANCH   7  10
ENDBRANCH   1   7
TORSDOF 4
REMARK  Name = ../refined-set-2016/4ih3/4ih3_pocket.pdb
REMARK  155 active torsions:
REMARK  status: ('A' for Active; 'I' for Inactive)
REMARK    1  A    between atoms: _1  and  _3
REMARK    2  A    between atoms: _14  and  _17
REMARK    3  A    between atoms: _17  and  _18
REMARK    4  A    between atoms: _22  and  _23
REMARK    5  A    between atoms: _31  and  _33
REMARK    6  A    between atoms: _33  and  _34
REMARK    7  A    between atoms: _33  and  _36
REMARK    8  A    between atoms: _36  and  _37
REMARK    9  A    between atoms: _40  and  _42
REMARK   10  A    between atoms: _42  and  _43
REMARK   11  A    between atoms: _42  and  _45
REMARK   12  A    between atoms: _45  and  _46
REMARK   13  A    between atoms: _52  and  _54
REMARK   14  A    between atoms: _54  and  _55
REMARK   15  A    between atoms: _54  and  _57
REMARK   16  A    between atoms: _57  and  _58
REMARK   17  A    between atoms: _58  and  _59
REMARK   18  A    between atoms: _59  and  _60
REMARK   19  A    between atoms: _69  and  _71
REMARK   20  A    between atoms: _71  and  _72
REMARK   21  A    between atoms: _71  and  _74
REMARK   22  A    between atoms: _74  and  _75
REMARK   23  A    between atoms: _77  and  _79
REMARK   24  A    between atoms: _79  and  _80
REMARK   25  A    between atoms: _79  and  _82
REMARK   26  A    between atoms: _82  and  _83
REMARK   27  A    between atoms: _86  and  _88
REMARK   28  A    between atoms: _88  and  _89
REMARK   29  A    between atoms: _88  and  _91
REMARK   30  A    between atoms: _95  and  _96
REMARK   31  A    between atoms: _101  and  _103
REMARK   32  A    between atoms: _103  and  _104
REMARK   33  A    between atoms: _103  and  _106
REMARK   34  A    between atoms: _109  and  _111
REMARK   35  A    between atoms: _111  and  _112
REMARK   36  A    between atoms: _111  and  _114
REMARK   37  A    between atoms: _114  and  _115
REMARK   38  A    between atoms: _115  and  _116
REMARK   39  A    between atoms: _118  and  _120
REMARK   40  A    between atoms: _120  and  _121
REMARK   41  A    between atoms: _120  and  _123
REMARK   42  A    between atoms: _123  and  _124
REMARK   43  A    between atoms: _130  and  _132
REMARK   44  A    between atoms: _132  and  _133
REMARK   45  A    between atoms: _132  and  _135
REMARK   46  A    between atoms: _135  and  _136
REMARK   47  A    between atoms: _136  and  _137
REMARK   48  A    between atoms: _142  and  _144
REMARK   49  A    between atoms: _144  and  _145
REMARK   50  A    between atoms: _144  and  _147
REMARK   51  A    between atoms: _147  and  _148
REMARK   52  A    between atoms: _154  and  _156
REMARK   53  A    between atoms: _156  and  _157
REMARK   54  A    between atoms: _156  and  _159
REMARK   55  A    between atoms: _159  and  _160
REMARK   56  A    between atoms: _164  and  ZN_436
REMARK   57  A    between atoms: _166  and  _167
REMARK   58  A    between atoms: _172  and  _174
REMARK   59  A    between atoms: _174  and  _175
REMARK   60  A    between atoms: _174  and  _177
REMARK   61  A    between atoms: _177  and  _178
REMARK   62  A    between atoms: _188  and  _190
REMARK   63  A    between atoms: _190  and  _191
REMARK   64  A    between atoms: _190  and  _193
REMARK   65  A    between atoms: _193  and  _194
REMARK   66  A    between atoms: _197  and  _199
REMARK   67  A    between atoms: _199  and  _200
REMARK   68  A    between atoms: _199  and  _202
REMARK   69  A    between atoms: _202  and  _203
REMARK   70  A    between atoms: _203  and  _204
REMARK   71  A    between atoms: _206  and  _208
REMARK   72  A    between atoms: _208  and  _209
REMARK   73  A    between atoms: _208  and  _211
REMARK   74  A    between atoms: _211  and  _212
REMARK   75  A    between atoms: _212  and  _213
REMARK   76  A    between atoms: _215  and  _217
REMARK   77  A    between atoms: _217  and  _218
REMARK   78  A    between atoms: _217  and  _220
REMARK   79  A    between atoms: _220  and  _221
REMARK   80  A    between atoms: _232  and  _233
REMARK   81  A    between atoms: _238  and  _240
REMARK   82  A    between atoms: _240  and  _241
REMARK   83  A    between atoms: _240  and  _243
REMARK   84  A    between atoms: _243  and  _244
REMARK   85  A    between atoms: _254  and  _256
REMARK   86  A    between atoms: _256  and  _257
REMARK   87  A    between atoms: _256  and  _259
REMARK   88  A    between atoms: _259  and  _260
REMARK   89  A    between atoms: _263  and  _265
REMARK   90  A    between atoms: _265  and  _266
REMARK   91  A    between atoms: _265  and  _268
REMARK   92  A    between atoms: _268  and  _269
REMARK   93  A    between atoms: _269  and  _270
REMARK   94  A    between atoms: _272  and  _274
REMARK   95  A    between atoms: _274  and  _275
REMARK   96  A    between atoms: _278  and  _280
REMARK   97  A    between atoms: _280  and  _281
REMARK   98  A    between atoms: _280  and  _283
REMARK   99  A    between atoms: _283  and  _284
REMARK  100  A    between atoms: _289  and  _291
REMARK  101  A    between atoms: _291  and  _292
REMARK  102  A    between atoms: _291  and  _294
REMARK  103  A    between atoms: _294  and  _295
REMARK  104  A    between atoms: _298  and  _300
REMARK  105  A    between atoms: _300  and  _301
REMARK  106  A    between atoms: _300  and  _303
REMARK  107  A    between atoms: _303  and  _304
REMARK  108  A    between atoms: _309  and  _311
REMARK  109  A    between atoms: _311  and  _312
REMARK  110  A    between atoms: _311  and  _314
REMARK  111  A    between atoms: _314  and  _315
REMARK  112  A    between atoms: _318  and  _320
REMARK  113  A    between atoms: _320  and  _321
REMARK  114  A    between atoms: _320  and  _323
REMARK  115  A    between atoms: _323  and  _324
REMARK  116  A    between atoms: _324  and  _325
REMARK  117  A    between atoms: _325  and  ZN_436
REMARK  118  A    between atoms: _327  and  _329
REMARK  119  A    between atoms: _329  and  _330
REMARK  120  A    between atoms: _329  and  _332
REMARK  121  A    between atoms: _332  and  _333
REMARK  122  A    between atoms: _338  and  _339
REMARK  123  A    between atoms: _342  and  _343
REMARK  124  A    between atoms: _348  and  _350
REMARK  125  A    between atoms: _350  and  _351
REMARK  126  A    between atoms: _350  and  _353
REMARK  127  A    between atoms: _353  and  _354
REMARK  128  A    between atoms: _361  and  _362
REMARK  129  A    between atoms: _367  and  _369
REMARK  130  A    between atoms: _369  and  _370
REMARK  131  A    between atoms: _369  and  _372
REMARK  132  A    between atoms: _372  and  _373
REMARK  133  A    between atoms: _376  and  _378
REMARK  134  A    between atoms: _378  and  _379
REMARK  135  A    between atoms: _381  and  _383
REMARK  136  A    between atoms: _383  and  _384
REMARK  137  A    between atoms: _383  and  _386
REMARK  138  A    between atoms: _386  and  _387
REMARK  139  A    between atoms: _387  and  _388
REMARK  140  A    between atoms: _391  and  _393
REMARK  141  A    between atoms: _393  and  _394
REMARK  142  A    between atoms: _393  and  _396
REMARK  143  A    between atoms: _396  and  _397
REMARK  144  A    between atoms: _397  and  _398
REMARK  145  A    between atoms: _398  and  _399
REMARK  146  A    between atoms: _408  and  _410
REMARK  147  A    between atoms: _410  and  _411
REMARK  148  A    between atoms: _410  and  _413
REMARK  149  A    between atoms: _413  and  _414
REMARK  150  A    between atoms: _419  and  _421
REMARK  151  A    between atoms: _421  and  _422
REMARK  152  A    between atoms: _421  and  _424
REMARK  153  A    between atoms: _424  and  _425
REMARK  154  A    between atoms: _425  and  _426
REMARK  155  A    between atoms: _426  and  _427
REMARK                            x       y       z     vdW  Elec       q    Type
REMARK                         _______ _______ _______ _____ _____    ______ ____
ROOT
ATOM      1  NE  ARG A   1      -4.551 -10.366   1.514  0.00  0.00    +0.330 N 
ATOM      2  CZ  ARG A   1      -4.735 -10.653   2.797  0.00  0.00    +0.000 C 
ATOM      3  NH2 ARG A   1      -5.773 -10.147   3.453  0.00  0.00    +0.330 N 
ATOM      4 HH21 ARG A   1      -5.914 -10.374   4.458  0.00  0.00    +0.000 HD
ATOM      5 HH22 ARG A   1      -6.445  -9.524   2.962  0.00  0.00    +0.000 HD
ATOM      6  NH1 ARG A   1      -3.877 -11.442   3.423  0.00  0.00    +0.330 N 
ATOM      7 HH11 ARG A   1      -4.017 -11.669   4.428  0.00  0.00    +0.000 HD
ATOM      8 HH12 ARG A   1      -3.062 -11.835   2.910  0.00  0.00    +0.000 HD
ATOM      9  HE  ARG A   1      -3.724 -10.775   1.035  0.00  0.00    +0.000 HD
ENDROOT
BRANCH   1  10
ATOM     10  CD  ARG A   1      -5.438  -9.514   0.740  0.00  0.00    +0.000 C 
BRANCH  10  11
ATOM     11  CG  ARG A   1      -5.247  -8.027   1.037  0.00  0.00    +0.000 C 
BRANCH  11  12
ATOM     12  CB  ARG A   1      -6.328  -7.220   0.331  0.00  0.00    +0.000 C 
BRANCH  12  13
ATOM     13  CA  ARG A   1      -6.241  -5.717   0.553  0.00  0.00    +0.000 C 
BRANCH  13  14
ATOM     14  N   ARG A   1      -7.277  -5.016  -0.195  0.00  0.00    +0.000 NA
ATOM     15  H   ARG A   1      -7.968  -5.562  -0.747  0.00  0.00    +0.000 HD
ENDBRANCH  13  14
BRANCH  13  16
ATOM     16  C   ARG A   1      -4.873  -5.201   0.145  0.00  0.00    +0.000 C 
ATOM     17  O   ARG A   1      -4.064  -4.830   0.993  0.00  0.00    +0.000 OA
ENDBRANCH  13  16
ENDBRANCH  12  13
ENDBRANCH  11  12
ENDBRANCH  10  11
ENDBRANCH   1  10
TORSDOF 6
REMARK  Name = ../refined-set-2016/4ih3/4ih3_pocket.pdb
REMARK  155 active torsions:
REMARK  status: ('A' for Active; 'I' for Inactive)
REMARK    1  A    between atoms: _1  and  _3
REMARK    2  A    between atoms: _14  and  _17
REMARK    3  A    between atoms: _17  and  _18
REMARK    4  A    between atoms: _22  and  _23
REMARK    5  A    between atoms: _31  and  _33
REMARK    6  A    between atoms: _33  and  _34
REMARK    7  A    between atoms: _33  and  _36
REMARK    8  A    between atoms: _36  and  _37
REMARK    9  A    between atoms: _40  and  _42
REMARK   10  A    between atoms: _42  and  _43
REMARK   11  A    between atoms: _42  and  _45
REMARK   12  A    between atoms: _45  and  _46
REMARK   13  A    between atoms: _52  and  _54
REMARK   14  A    between atoms: _54  and  _55
REMARK   15  A    between atoms: _54  and  _57
REMARK   16  A    between atoms: _57  and  _58
REMARK   17  A    between atoms: _58  and  _59
REMARK   18  A    between atoms: _59  and  _60
REMARK   19  A    between atoms: _69  and  _71
REMARK   20  A    between atoms: _71  and  _72
REMARK   21  A    between atoms: _71  and  _74
REMARK   22  A    between atoms: _74  and  _75
REMARK   23  A    between atoms: _77  and  _79
REMARK   24  A    between atoms: _79  and  _80
REMARK   25  A    between atoms: _79  and  _82
REMARK   26  A    between atoms: _82  and  _83
REMARK   27  A    between atoms: _86  and  _88
REMARK   28  A    between atoms: _88  and  _89
REMARK   29  A    between atoms: _88  and  _91
REMARK   30  A    between atoms: _95  and  _96
REMARK   31  A    between atoms: _101  and  _103
REMARK   32  A    between atoms: _103  and  _104
REMARK   33  A    between atoms: _103  and  _106
REMARK   34  A    between atoms: _109  and  _111
REMARK   35  A    between atoms: _111  and  _112
REMARK   36  A    between atoms: _111  and  _114
REMARK   37  A    between atoms: _114  and  _115
REMARK   38  A    between atoms: _115  and  _116
REMARK   39  A    between atoms: _118  and  _120
REMARK   40  A    between atoms: _120  and  _121
REMARK   41  A    between atoms: _120  and  _123
REMARK   42  A    between atoms: _123  and  _124
REMARK   43  A    between atoms: _130  and  _132
REMARK   44  A    between atoms: _132  and  _133
REMARK   45  A    between atoms: _132  and  _135
REMARK   46  A    between atoms: _135  and  _136
REMARK   47  A    between atoms: _136  and  _137
REMARK   48  A    between atoms: _142  and  _144
REMARK   49  A    between atoms: _144  and  _145
REMARK   50  A    between atoms: _144  and  _147
REMARK   51  A    between atoms: _147  and  _148
REMARK   52  A    between atoms: _154  and  _156
REMARK   53  A    between atoms: _156  and  _157
REMARK   54  A    between atoms: _156  and  _159
REMARK   55  A    between atoms: _159  and  _160
REMARK   56  A    between atoms: _164  and  ZN_436
REMARK   57  A    between atoms: _166  and  _167
REMARK   58  A    between atoms: _172  and  _174
REMARK   59  A    between atoms: _174  and  _175
REMARK   60  A    between atoms: _174  and  _177
REMARK   61  A    between atoms: _177  and  _178
REMARK   62  A    between atoms: _188  and  _190
REMARK   63  A    between atoms: _190  and  _191
REMARK   64  A    between atoms: _190  and  _193
REMARK   65  A    between atoms: _193  and  _194
REMARK   66  A    between atoms: _197  and  _199
REMARK   67  A    between atoms: _199  and  _200
REMARK   68  A    between atoms: _199  and  _202
REMARK   69  A    between atoms: _202  and  _203
REMARK   70  A    between atoms: _203  and  _204
REMARK   71  A    between atoms: _206  and  _208
REMARK   72  A    between atoms: _208  and  _209
REMARK   73  A    between atoms: _208  and  _211
REMARK   74  A    between atoms: _211  and  _212
REMARK   75  A    between atoms: _212  and  _213
REMARK   76  A    between atoms: _215  and  _217
REMARK   77  A    between atoms: _217  and  _218
REMARK   78  A    between atoms: _217  and  _220
REMARK   79  A    between atoms: _220  and  _221
REMARK   80  A    between atoms: _232  and  _233
REMARK   81  A    between atoms: _238  and  _240
REMARK   82  A    between atoms: _240  and  _241
REMARK   83  A    between atoms: _240  and  _243
REMARK   84  A    between atoms: _243  and  _244
REMARK   85  A    between atoms: _254  and  _256
REMARK   86  A    between atoms: _256  and  _257
REMARK   87  A    between atoms: _256  and  _259
REMARK   88  A    between atoms: _259  and  _260
REMARK   89  A    between atoms: _263  and  _265
REMARK   90  A    between atoms: _265  and  _266
REMARK   91  A    between atoms: _265  and  _268
REMARK   92  A    between atoms: _268  and  _269
REMARK   93  A    between atoms: _269  and  _270
REMARK   94  A    between atoms: _272  and  _274
REMARK   95  A    between atoms: _274  and  _275
REMARK   96  A    between atoms: _278  and  _280
REMARK   97  A    between atoms: _280  and  _281
REMARK   98  A    between atoms: _280  and  _283
REMARK   99  A    between atoms: _283  and  _284
REMARK  100  A    between atoms: _289  and  _291
REMARK  101  A    between atoms: _291  and  _292
REMARK  102  A    between atoms: _291  and  _294
REMARK  103  A    between atoms: _294  and  _295
REMARK  104  A    between atoms: _298  and  _300
REMARK  105  A    between atoms: _300  and  _301
REMARK  106  A    between atoms: _300  and  _303
REMARK  107  A    between atoms: _303  and  _304
REMARK  108  A    between atoms: _309  and  _311
REMARK  109  A    between atoms: _311  and  _312
REMARK  110  A    between atoms: _311  and  _314
REMARK  111  A    between atoms: _314  and  _315
REMARK  112  A    between atoms: _318  and  _320
REMARK  113  A    between atoms: _320  and  _321
REMARK  114  A    between atoms: _320  and  _323
REMARK  115  A    between atoms: _323  and  _324
REMARK  116  A    between atoms: _324  and  _325
REMARK  117  A    between atoms: _325  and  ZN_436
REMARK  118  A    between atoms: _327  and  _329
REMARK  119  A    between atoms: _329  and  _330
REMARK  120  A    between atoms: _329  and  _332
REMARK  121  A    between atoms: _332  and  _333
REMARK  122  A    between atoms: _338  and  _339
REMARK  123  A    between atoms: _342  and  _343
REMARK  124  A    between atoms: _348  and  _350
REMARK  125  A    between atoms: _350  and  _351
REMARK  126  A    between atoms: _350  and  _353
REMARK  127  A    between atoms: _353  and  _354
REMARK  128  A    between atoms: _361  and  _362
REMARK  129  A    between atoms: _367  and  _369
REMARK  130  A    between atoms: _369  and  _370
REMARK  131  A    between atoms: _369  and  _372
REMARK  132  A    between atoms: _372  and  _373
REMARK  133  A    between atoms: _376  and  _378
REMARK  134  A    between atoms: _378  and  _379
REMARK  135  A    between atoms: _381  and  _383
REMARK  136  A    between atoms: _383  and  _384
REMARK  137  A    between atoms: _383  and  _386
REMARK  138  A    between atoms: _386  and  _387
REMARK  139  A    between atoms: _387  and  _388
REMARK  140  A    between atoms: _391  and  _393
REMARK  141  A    between atoms: _393  and  _394
REMARK  142  A    between atoms: _393  and  _396
REMARK  143  A    between atoms: _396  and  _397
REMARK  144  A    between atoms: _397  and  _398
REMARK  145  A    between atoms: _398  and  _399
REMARK  146  A    between atoms: _408  and  _410
REMARK  147  A    between atoms: _410  and  _411
REMARK  148  A    between atoms: _410  and  _413
REMARK  149  A    between atoms: _413  and  _414
REMARK  150  A    between atoms: _419  and  _421
REMARK  151  A    between atoms: _421  and  _422
REMARK  152  A    between atoms: _421  and  _424
REMARK  153  A    between atoms: _424  and  _425
REMARK  154  A    between atoms: _425  and  _426
REMARK  155  A    between atoms: _426  and  _427
REMARK                            x       y       z     vdW  Elec       q    Type
REMARK                         _______ _______ _______ _____ _____    ______ ____
ROOT
ATOM      1  CB  HIS A   1      -5.190  -2.150   3.529  0.00  0.00    +0.000 C 
ENDROOT
BRANCH   1   2
ATOM      2  CG  HIS A   1      -4.882  -2.260   4.989  0.00  0.00    +0.000 A 
ATOM      3  ND1 HIS A   1      -5.248  -1.295   5.901  0.00  0.00    +0.000 NA
ATOM      4  CE1 HIS A   1      -4.849  -1.656   7.105  0.00  0.00    +0.000 A 
ATOM      5  NE2 HIS A   1      -4.240  -2.822   7.008  0.00  0.00    +0.000 NA
ATOM      6  CD2 HIS A   1      -4.245  -3.222   5.696  0.00  0.00    +0.000 A 
ENDBRANCH   1   2
BRANCH   1   7
ATOM      7  CA  HIS A   1      -4.096  -1.448   2.720  0.00  0.00    +0.000 C 
BRANCH   7   8
ATOM      8  N   HIS A   1      -4.353  -1.559   1.284  0.00  0.00    +0.000 NA
ATOM      9  H   HIS A   1      -5.061  -2.239   0.940  0.00  0.00    +0.000 HD
ENDBRANCH   7   8
BRANCH   7  10
ATOM     10  C   HIS A   1      -2.720  -2.010   3.062  0.00  0.00    +0.000 C 
ATOM     11  O   HIS A   1      -2.020  -1.492   3.940  0.00  0.00    +0.000 OA
ENDBRANCH   7  10
ENDBRANCH   1   7
TORSDOF 4
REMARK  Name = ../refined-set-2016/4ih3/4ih3_pocket.pdb
REMARK  155 active torsions:
REMARK  status: ('A' for Active; 'I' for Inactive)
REMARK    1  A    between atoms: _1  and  _3
REMARK    2  A    between atoms: _14  and  _17
REMARK    3  A    between atoms: _17  and  _18
REMARK    4  A    between atoms: _22  and  _23
REMARK    5  A    between atoms: _31  and  _33
REMARK    6  A    between atoms: _33  and  _34
REMARK    7  A    between atoms: _33  and  _36
REMARK    8  A    between atoms: _36  and  _37
REMARK    9  A    between atoms: _40  and  _42
REMARK   10  A    between atoms: _42  and  _43
REMARK   11  A    between atoms: _42  and  _45
REMARK   12  A    between atoms: _45  and  _46
REMARK   13  A    between atoms: _52  and  _54
REMARK   14  A    between atoms: _54  and  _55
REMARK   15  A    between atoms: _54  and  _57
REMARK   16  A    between atoms: _57  and  _58
REMARK   17  A    between atoms: _58  and  _59
REMARK   18  A    between atoms: _59  and  _60
REMARK   19  A    between atoms: _69  and  _71
REMARK   20  A    between atoms: _71  and  _72
REMARK   21  A    between atoms: _71  and  _74
REMARK   22  A    between atoms: _74  and  _75
REMARK   23  A    between atoms: _77  and  _79
REMARK   24  A    between atoms: _79  and  _80
REMARK   25  A    between atoms: _79  and  _82
REMARK   26  A    between atoms: _82  and  _83
REMARK   27  A    between atoms: _86  and  _88
REMARK   28  A    between atoms: _88  and  _89
REMARK   29  A    between atoms: _88  and  _91
REMARK   30  A    between atoms: _95  and  _96
REMARK   31  A    between atoms: _101  and  _103
REMARK   32  A    between atoms: _103  and  _104
REMARK   33  A    between atoms: _103  and  _106
REMARK   34  A    between atoms: _109  and  _111
REMARK   35  A    between atoms: _111  and  _112
REMARK   36  A    between atoms: _111  and  _114
REMARK   37  A    between atoms: _114  and  _115
REMARK   38  A    between atoms: _115  and  _116
REMARK   39  A    between atoms: _118  and  _120
REMARK   40  A    between atoms: _120  and  _121
REMARK   41  A    between atoms: _120  and  _123
REMARK   42  A    between atoms: _123  and  _124
REMARK   43  A    between atoms: _130  and  _132
REMARK   44  A    between atoms: _132  and  _133
REMARK   45  A    between atoms: _132  and  _135
REMARK   46  A    between atoms: _135  and  _136
REMARK   47  A    between atoms: _136  and  _137
REMARK   48  A    between atoms: _142  and  _144
REMARK   49  A    between atoms: _144  and  _145
REMARK   50  A    between atoms: _144  and  _147
REMARK   51  A    between atoms: _147  and  _148
REMARK   52  A    between atoms: _154  and  _156
REMARK   53  A    between atoms: _156  and  _157
REMARK   54  A    between atoms: _156  and  _159
REMARK   55  A    between atoms: _159  and  _160
REMARK   56  A    between atoms: _164  and  ZN_436
REMARK   57  A    between atoms: _166  and  _167
REMARK   58  A    between atoms: _172  and  _174
REMARK   59  A    between atoms: _174  and  _175
REMARK   60  A    between atoms: _174  and  _177
REMARK   61  A    between atoms: _177  and  _178
REMARK   62  A    between atoms: _188  and  _190
REMARK   63  A    between atoms: _190  and  _191
REMARK   64  A    between atoms: _190  and  _193
REMARK   65  A    between atoms: _193  and  _194
REMARK   66  A    between atoms: _197  and  _199
REMARK   67  A    between atoms: _199  and  _200
REMARK   68  A    between atoms: _199  and  _202
REMARK   69  A    between atoms: _202  and  _203
REMARK   70  A    between atoms: _203  and  _204
REMARK   71  A    between atoms: _206  and  _208
REMARK   72  A    between atoms: _208  and  _209
REMARK   73  A    between atoms: _208  and  _211
REMARK   74  A    between atoms: _211  and  _212
REMARK   75  A    between atoms: _212  and  _213
REMARK   76  A    between atoms: _215  and  _217
REMARK   77  A    between atoms: _217  and  _218
REMARK   78  A    between atoms: _217  and  _220
REMARK   79  A    between atoms: _220  and  _221
REMARK   80  A    between atoms: _232  and  _233
REMARK   81  A    between atoms: _238  and  _240
REMARK   82  A    between atoms: _240  and  _241
REMARK   83  A    between atoms: _240  and  _243
REMARK   84  A    between atoms: _243  and  _244
REMARK   85  A    between atoms: _254  and  _256
REMARK   86  A    between atoms: _256  and  _257
REMARK   87  A    between atoms: _256  and  _259
REMARK   88  A    between atoms: _259  and  _260
REMARK   89  A    between atoms: _263  and  _265
REMARK   90  A    between atoms: _265  and  _266
REMARK   91  A    between atoms: _265  and  _268
REMARK   92  A    between atoms: _268  and  _269
REMARK   93  A    between atoms: _269  and  _270
REMARK   94  A    between atoms: _272  and  _274
REMARK   95  A    between atoms: _274  and  _275
REMARK   96  A    between atoms: _278  and  _280
REMARK   97  A    between atoms: _280  and  _281
REMARK   98  A    between atoms: _280  and  _283
REMARK   99  A    between atoms: _283  and  _284
REMARK  100  A    between atoms: _289  and  _291
REMARK  101  A    between atoms: _291  and  _292
REMARK  102  A    between atoms: _291  and  _294
REMARK  103  A    between atoms: _294  and  _295
REMARK  104  A    between atoms: _298  and  _300
REMARK  105  A    between atoms: _300  and  _301
REMARK  106  A    between atoms: _300  and  _303
REMARK  107  A    between atoms: _303  and  _304
REMARK  108  A    between atoms: _309  and  _311
REMARK  109  A    between atoms: _311  and  _312
REMARK  110  A    between atoms: _311  and  _314
REMARK  111  A    between atoms: _314  and  _315
REMARK  112  A    between atoms: _318  and  _320
REMARK  113  A    between atoms: _320  and  _321
REMARK  114  A    between atoms: _320  and  _323
REMARK  115  A    between atoms: _323  and  _324
REMARK  116  A    between atoms: _324  and  _325
REMARK  117  A    between atoms: _325  and  ZN_436
REMARK  118  A    between atoms: _327  and  _329
REMARK  119  A    between atoms: _329  and  _330
REMARK  120  A    between atoms: _329  and  _332
REMARK  121  A    between atoms: _332  and  _333
REMARK  122  A    between atoms: _338  and  _339
REMARK  123  A    between atoms: _342  and  _343
REMARK  124  A    between atoms: _348  and  _350
REMARK  125  A    between atoms: _350  and  _351
REMARK  126  A    between atoms: _350  and  _353
REMARK  127  A    between atoms: _353  and  _354
REMARK  128  A    between atoms: _361  and  _362
REMARK  129  A    between atoms: _367  and  _369
REMARK  130  A    between atoms: _369  and  _370
REMARK  131  A    between atoms: _369  and  _372
REMARK  132  A    between atoms: _372  and  _373
REMARK  133  A    between atoms: _376  and  _378
REMARK  134  A    between atoms: _378  and  _379
REMARK  135  A    between atoms: _381  and  _383
REMARK  136  A    between atoms: _383  and  _384
REMARK  137  A    between atoms: _383  and  _386
REMARK  138  A    between atoms: _386  and  _387
REMARK  139  A    between atoms: _387  and  _388
REMARK  140  A    between atoms: _391  and  _393
REMARK  141  A    between atoms: _393  and  _394
REMARK  142  A    between atoms: _393  and  _396
REMARK  143  A    between atoms: _396  and  _397
REMARK  144  A    between atoms: _397  and  _398
REMARK  145  A    between atoms: _398  and  _399
REMARK  146  A    between atoms: _408  and  _410
REMARK  147  A    between atoms: _410  and  _411
REMARK  148  A    between atoms: _410  and  _413
REMARK  149  A    between atoms: _413  and  _414
REMARK  150  A    between atoms: _419  and  _421
REMARK  151  A    between atoms: _421  and  _422
REMARK  152  A    between atoms: _421  and  _424
REMARK  153  A    between atoms: _424  and  _425
REMARK  154  A    between atoms: _425  and  _426
REMARK  155  A    between atoms: _426  and  _427
REMARK                            x       y       z     vdW  Elec       q    Type
REMARK                         _______ _______ _______ _____ _____    ______ ____
ROOT
ATOM      1  NE  ARG A   1       6.113  -4.298   6.920  0.00  0.00    +0.330 N 
ATOM      2  CZ  ARG A   1       6.584  -5.471   7.321  0.00  0.00    +0.000 C 
ATOM      3  NH2 ARG A   1       5.767  -6.384   7.835  0.00  0.00    +0.330 N 
ATOM      4 HH21 ARG A   1       6.143  -7.302   8.147  0.00  0.00    +0.000 HD
ATOM      5 HH22 ARG A   1       4.751  -6.181   7.925  0.00  0.00    +0.000 HD
ATOM      6  NH1 ARG A   1       7.878  -5.730   7.203  0.00  0.00    +0.330 N 
ATOM      7 HH11 ARG A   1       8.255  -6.648   7.515  0.00  0.00    +0.000 HD
ATOM      8 HH12 ARG A   1       8.516  -5.016   6.798  0.00  0.00    +0.000 HD
ATOM      9  HE  ARG A   1       6.789  -3.612   6.527  0.00  0.00    +0.000 HD
ENDROOT
BRANCH   1  10
ATOM     10  CD  ARG A   1       4.714  -3.907   6.994  0.00  0.00    +0.000 C 
BRANCH  10  11
ATOM     11  CG  ARG A   1       3.960  -4.245   5.721  0.00  0.00    +0.000 C 
BRANCH  11  12
ATOM     12  CB  ARG A   1       4.468  -3.432   4.527  0.00  0.00    +0.000 C 
BRANCH  12  13
ATOM     13  CA  ARG A   1       4.375  -1.908   4.700  0.00  0.00    +0.000 C 
BRANCH  13  14
ATOM     14  N   ARG A   1       2.990  -1.489   4.879  0.00  0.00    +0.000 NA
ATOM     15  H   ARG A   1       2.324  -1.541   4.082  0.00  0.00    +0.000 HD
ENDBRANCH  13  14
BRANCH  13  16
ATOM     16  C   ARG A   1       5.041  -1.204   3.520  0.00  0.00    +0.000 C 
ATOM     17  O   ARG A   1       5.310  -1.823   2.484  0.00  0.00    +0.000 OA
ENDBRANCH  13  16
ENDBRANCH  12  13
ENDBRANCH  11  12
ENDBRANCH  10  11
ENDBRANCH   1  10
TORSDOF 6
