REMARK  Name = ../refined-set-2016/4f3c/4f3c_pocket.pdb
REMARK  209 active torsions:
REMARK  status: ('A' for Active; 'I' for Inactive)
REMARK    1  A    between atoms: _1  and  _3
REMARK    2  A    between atoms: _3  and  _4
REMARK    3  A    between atoms: _6  and  _8
REMARK    4  A    between atoms: _8  and  _9
REMARK    5  A    between atoms: _12  and  _14
REMARK    6  A    between atoms: _14  and  _15
REMARK    7  A    between atoms: _14  and  _17
REMARK    8  A    between atoms: _17  and  _18
REMARK    9  A    between atoms: _18  and  _19
REMARK   10  A    between atoms: _21  and  _23
REMARK   11  A    between atoms: _23  and  _24
REMARK   12  A    between atoms: _23  and  _26
REMARK   13  A    between atoms: _26  and  _27
REMARK   14  A    between atoms: _27  and  _28
REMARK   15  A    between atoms: _31  and  _33
REMARK   16  A    between atoms: _33  and  _34
REMARK   17  A    between atoms: _33  and  _36
REMARK   18  A    between atoms: _36  and  _37
REMARK   19  A    between atoms: _37  and  _38
REMARK   20  A    between atoms: _41  and  _43
REMARK   21  A    between atoms: _43  and  _44
REMARK   22  A    between atoms: _43  and  _46
REMARK   23  A    between atoms: _46  and  _47
REMARK   24  A    between atoms: _49  and  _51
REMARK   25  A    between atoms: _51  and  _52
REMARK   26  A    between atoms: _54  and  _56
REMARK   27  A    between atoms: _56  and  _57
REMARK   28  A    between atoms: _56  and  _59
REMARK   29  A    between atoms: _59  and  _60
REMARK   30  A    between atoms: _63  and  _65
REMARK   31  A    between atoms: _65  and  _66
REMARK   32  A    between atoms: _68  and  _70
REMARK   33  A    between atoms: _70  and  _71
REMARK   34  A    between atoms: _74  and  _76
REMARK   35  A    between atoms: _76  and  _77
REMARK   36  A    between atoms: _80  and  _82
REMARK   37  A    between atoms: _82  and  _83
REMARK   38  A    between atoms: _82  and  _85
REMARK   39  A    between atoms: _85  and  _86
REMARK   40  A    between atoms: _91  and  _93
REMARK   41  A    between atoms: _93  and  _94
REMARK   42  A    between atoms: _93  and  _96
REMARK   43  A    between atoms: _96  and  _97
REMARK   44  A    between atoms: _100  and  _102
REMARK   45  A    between atoms: _102  and  _103
REMARK   46  A    between atoms: _105  and  _107
REMARK   47  A    between atoms: _107  and  _108
REMARK   48  A    between atoms: _107  and  _110
REMARK   49  A    between atoms: _110  and  _111
REMARK   50  A    between atoms: _113  and  _115
REMARK   51  A    between atoms: _115  and  _116
REMARK   52  A    between atoms: _119  and  _121
REMARK   53  A    between atoms: _121  and  _122
REMARK   54  A    between atoms: _124  and  _126
REMARK   55  A    between atoms: _126  and  _127
REMARK   56  A    between atoms: _129  and  _131
REMARK   57  A    between atoms: _131  and  _132
REMARK   58  A    between atoms: _131  and  _134
REMARK   59  A    between atoms: _134  and  _135
REMARK   60  A    between atoms: _138  and  _140
REMARK   61  A    between atoms: _140  and  _141
REMARK   62  A    between atoms: _140  and  _143
REMARK   63  A    between atoms: _143  and  _144
REMARK   64  A    between atoms: _149  and  _151
REMARK   65  A    between atoms: _151  and  _152
REMARK   66  A    between atoms: _151  and  _154
REMARK   67  A    between atoms: _157  and  _159
REMARK   68  A    between atoms: _159  and  _160
REMARK   69  A    between atoms: _159  and  _162
REMARK   70  A    between atoms: _162  and  _163
REMARK   71  A    between atoms: _165  and  _167
REMARK   72  A    between atoms: _167  and  _168
REMARK   73  A    between atoms: _170  and  _172
REMARK   74  A    between atoms: _172  and  _173
REMARK   75  A    between atoms: _172  and  _175
REMARK   76  A    between atoms: _175  and  _176
REMARK   77  A    between atoms: _179  and  _181
REMARK   78  A    between atoms: _181  and  _182
REMARK   79  A    between atoms: _185  and  _187
REMARK   80  A    between atoms: _187  and  _188
REMARK   81  A    between atoms: _187  and  _190
REMARK   82  A    between atoms: _190  and  _191
REMARK   83  A    between atoms: _197  and  _199
REMARK   84  A    between atoms: _199  and  _200
REMARK   85  A    between atoms: _199  and  _202
REMARK   86  A    between atoms: _202  and  _203
REMARK   87  A    between atoms: _206  and  _208
REMARK   88  A    between atoms: _208  and  _209
REMARK   89  A    between atoms: _208  and  _211
REMARK   90  A    between atoms: _211  and  _212
REMARK   91  A    between atoms: _217  and  _219
REMARK   92  A    between atoms: _219  and  _220
REMARK   93  A    between atoms: _222  and  _224
REMARK   94  A    between atoms: _224  and  _225
REMARK   95  A    between atoms: _224  and  _227
REMARK   96  A    between atoms: _227  and  _228
REMARK   97  A    between atoms: _231  and  _233
REMARK   98  A    between atoms: _233  and  _234
REMARK   99  A    between atoms: _233  and  _236
REMARK  100  A    between atoms: _236  and  _237
REMARK  101  A    between atoms: _240  and  _242
REMARK  102  A    between atoms: _242  and  _243
REMARK  103  A    between atoms: _246  and  _248
REMARK  104  A    between atoms: _248  and  _249
REMARK  105  A    between atoms: _248  and  _251
REMARK  106  A    between atoms: _254  and  _256
REMARK  107  A    between atoms: _256  and  _257
REMARK  108  A    between atoms: _256  and  _259
REMARK  109  A    between atoms: _259  and  _260
REMARK  110  A    between atoms: _260  and  _261
REMARK  111  A    between atoms: _264  and  _266
REMARK  112  A    between atoms: _266  and  _267
REMARK  113  A    between atoms: _266  and  _269
REMARK  114  A    between atoms: _269  and  _270
REMARK  115  A    between atoms: _270  and  _271
REMARK  116  A    between atoms: _273  and  _275
REMARK  117  A    between atoms: _275  and  _276
REMARK  118  A    between atoms: _275  and  _278
REMARK  119  A    between atoms: _278  and  _279
REMARK  120  A    between atoms: _279  and  _280
REMARK  121  A    between atoms: _283  and  _285
REMARK  122  A    between atoms: _285  and  _286
REMARK  123  A    between atoms: _289  and  _291
REMARK  124  A    between atoms: _291  and  _292
REMARK  125  A    between atoms: _291  and  _294
REMARK  126  A    between atoms: _294  and  _295
REMARK  127  A    between atoms: _295  and  _296
REMARK  128  A    between atoms: _296  and  _297
REMARK  129  A    between atoms: _306  and  _308
REMARK  130  A    between atoms: _308  and  _309
REMARK  131  A    between atoms: _312  and  _314
REMARK  132  A    between atoms: _314  and  _315
REMARK  133  A    between atoms: _314  and  _317
REMARK  134  A    between atoms: _317  and  _318
REMARK  135  A    between atoms: _321  and  _323
REMARK  136  A    between atoms: _323  and  _324
REMARK  137  A    between atoms: _323  and  _326
REMARK  138  A    between atoms: _326  and  _327
REMARK  139  A    between atoms: _329  and  _331
REMARK  140  A    between atoms: _331  and  _332
REMARK  141  A    between atoms: _331  and  _334
REMARK  142  A    between atoms: _334  and  _335
REMARK  143  A    between atoms: _338  and  _340
REMARK  144  A    between atoms: _340  and  _341
REMARK  145  A    between atoms: _340  and  _343
REMARK  146  A    between atoms: _346  and  _348
REMARK  147  A    between atoms: _348  and  _349
REMARK  148  A    between atoms: _352  and  _354
REMARK  149  A    between atoms: _354  and  _355
REMARK  150  A    between atoms: _354  and  _357
REMARK  151  A    between atoms: _357  and  _358
REMARK  152  A    between atoms: _361  and  _363
REMARK  153  A    between atoms: _363  and  _364
REMARK  154  A    between atoms: _363  and  _366
REMARK  155  A    between atoms: _366  and  _367
REMARK  156  A    between atoms: _367  and  _368
REMARK  157  A    between atoms: _373  and  _375
REMARK  158  A    between atoms: _375  and  _376
REMARK  159  A    between atoms: _375  and  _378
REMARK  160  A    between atoms: _378  and  _379
REMARK  161  A    between atoms: _381  and  _383
REMARK  162  A    between atoms: _383  and  _384
REMARK  163  A    between atoms: _383  and  _386
REMARK  164  A    between atoms: _386  and  _387
REMARK  165  A    between atoms: _392  and  _394
REMARK  166  A    between atoms: _394  and  _395
REMARK  167  A    between atoms: _394  and  _397
REMARK  168  A    between atoms: _397  and  _398
REMARK  169  A    between atoms: _400  and  _402
REMARK  170  A    between atoms: _402  and  _403
REMARK  171  A    between atoms: _402  and  _405
REMARK  172  A    between atoms: _405  and  _406
REMARK  173  A    between atoms: _412  and  _414
REMARK  174  A    between atoms: _414  and  _415
REMARK  175  A    between atoms: _414  and  _417
REMARK  176  A    between atoms: _417  and  _418
REMARK  177  A    between atoms: _421  and  _423
REMARK  178  A    between atoms: _423  and  _424
REMARK  179  A    between atoms: _423  and  _426
REMARK  180  A    between atoms: _426  and  _427
REMARK  181  A    between atoms: _430  and  _432
REMARK  182  A    between atoms: _432  and  _433
REMARK  183  A    between atoms: _436  and  _438
REMARK  184  A    between atoms: _438  and  _439
REMARK  185  A    between atoms: _438  and  _441
REMARK  186  A    between atoms: _441  and  _442
REMARK  187  A    between atoms: _445  and  _447
REMARK  188  A    between atoms: _447  and  _448
REMARK  189  A    between atoms: _447  and  _450
REMARK  190  A    between atoms: _453  and  _455
REMARK  191  A    between atoms: _455  and  _456
REMARK  192  A    between atoms: _459  and  _461
REMARK  193  A    between atoms: _461  and  _462
REMARK  194  A    between atoms: _461  and  _464
REMARK  195  A    between atoms: _464  and  _465
REMARK  196  A    between atoms: _471  and  _473
REMARK  197  A    between atoms: _473  and  _474
REMARK  198  A    between atoms: _476  and  _478
REMARK  199  A    between atoms: _478  and  _479
REMARK  200  A    between atoms: _478  and  _481
REMARK  201  A    between atoms: _481  and  _482
REMARK  202  A    between atoms: _487  and  _488
REMARK  203  A    between atoms: _490  and  _492
REMARK  204  A    between atoms: _492  and  _493
REMARK  205  A    between atoms: _492  and  _495
REMARK  206  A    between atoms: _495  and  _496
REMARK  207  A    between atoms: _500  and  _501
REMARK  208  A    between atoms: _506  and  _508
REMARK  209  A    between atoms: _508  and  _509
REMARK                            x       y       z     vdW  Elec       q    Type
REMARK                         _______ _______ _______ _____ _____    ______ ____
ROOT
ATOM      1  C   ALA A   2     -34.664   5.558  11.062  0.00  0.00    +0.241 C 
ATOM      2  O   ALA A   2     -33.784   6.347  10.734  0.00  0.00    -0.273 OA
ATOM      3  N   MET A   3     -35.883   5.607  10.552  0.00  0.00    -0.298 N 
ATOM      4  H   MET A   3     -36.655   5.086  11.014  0.00  0.00    +0.150 HD
ENDROOT
BRANCH   1   5
ATOM      5  CA  ALA A   2     -34.393   4.439  12.079  0.00  0.00    +0.149 C 
ATOM      6  CB  ALA A   2     -34.052   3.140  11.364  0.00  0.00    +0.031 C 
BRANCH   5   9
ATOM      7  C   GLY A   1     -35.689   4.973  14.047  0.00  0.00    +0.240 C 
ATOM      8  O   GLY A   1     -35.007   5.976  14.284  0.00  0.00    -0.274 OA
ATOM      9  N   ALA A   2     -35.499   4.212  12.972  0.00  0.00    -0.297 N 
ATOM     10  H   ALA A   2     -36.163   3.437  12.773  0.00  0.00    +0.150 HD
BRANCH   7  11
ATOM     11  CA  GLY A   1     -36.810   4.553  14.969  0.00  0.00    +0.169 C 
BRANCH  11  12
ATOM     12  N   GLY A   1     -36.506   5.057  16.293  0.00  0.00    -0.236 NA
ATOM     13  H   GLY A   1     -36.226   6.054  16.386  0.00  0.00    +0.142 HD
ENDBRANCH  11  12
ENDBRANCH   7  11
ENDBRANCH   5   9
ENDBRANCH   1   5
BRANCH   3  14
ATOM     14  CA  MET A   3     -36.154   6.379   9.356  0.00  0.00    +0.138 C 
BRANCH  14  15
ATOM     15  C   MET A   3     -37.093   7.509   9.685  0.00  0.00    +0.227 C 
ATOM     16  O   MET A   3     -37.900   7.429  10.621  0.00  0.00    -0.286 OA
ENDBRANCH  14  15
BRANCH  14  17
ATOM     17  CB  MET A   3     -36.822   5.520   8.288  0.00  0.00    +0.039 C 
BRANCH  17  18
ATOM     18  CG  MET A   3     -35.955   4.374   7.807  0.00  0.00    +0.060 C 
BRANCH  18  19
ATOM     19  SD  MET A   3     -36.888   3.314   6.715  0.00  0.00    -0.139 S 
ATOM     20  CE  MET A   3     -36.829   4.257   5.193  0.00  0.00    +0.069 C 
ENDBRANCH  18  19
ENDBRANCH  17  18
ENDBRANCH  14  17
ENDBRANCH   3  14
TORSDOF 9
REMARK  Name = ../refined-set-2016/4f3c/4f3c_pocket.pdb
REMARK  209 active torsions:
REMARK  status: ('A' for Active; 'I' for Inactive)
REMARK    1  A    between atoms: _1  and  _3
REMARK    2  A    between atoms: _3  and  _4
REMARK    3  A    between atoms: _6  and  _8
REMARK    4  A    between atoms: _8  and  _9
REMARK    5  A    between atoms: _12  and  _14
REMARK    6  A    between atoms: _14  and  _15
REMARK    7  A    between atoms: _14  and  _17
REMARK    8  A    between atoms: _17  and  _18
REMARK    9  A    between atoms: _18  and  _19
REMARK   10  A    between atoms: _21  and  _23
REMARK   11  A    between atoms: _23  and  _24
REMARK   12  A    between atoms: _23  and  _26
REMARK   13  A    between atoms: _26  and  _27
REMARK   14  A    between atoms: _27  and  _28
REMARK   15  A    between atoms: _31  and  _33
REMARK   16  A    between atoms: _33  and  _34
REMARK   17  A    between atoms: _33  and  _36
REMARK   18  A    between atoms: _36  and  _37
REMARK   19  A    between atoms: _37  and  _38
REMARK   20  A    between atoms: _41  and  _43
REMARK   21  A    between atoms: _43  and  _44
REMARK   22  A    between atoms: _43  and  _46
REMARK   23  A    between atoms: _46  and  _47
REMARK   24  A    between atoms: _49  and  _51
REMARK   25  A    between atoms: _51  and  _52
REMARK   26  A    between atoms: _54  and  _56
REMARK   27  A    between atoms: _56  and  _57
REMARK   28  A    between atoms: _56  and  _59
REMARK   29  A    between atoms: _59  and  _60
REMARK   30  A    between atoms: _63  and  _65
REMARK   31  A    between atoms: _65  and  _66
REMARK   32  A    between atoms: _68  and  _70
REMARK   33  A    between atoms: _70  and  _71
REMARK   34  A    between atoms: _74  and  _76
REMARK   35  A    between atoms: _76  and  _77
REMARK   36  A    between atoms: _80  and  _82
REMARK   37  A    between atoms: _82  and  _83
REMARK   38  A    between atoms: _82  and  _85
REMARK   39  A    between atoms: _85  and  _86
REMARK   40  A    between atoms: _91  and  _93
REMARK   41  A    between atoms: _93  and  _94
REMARK   42  A    between atoms: _93  and  _96
REMARK   43  A    between atoms: _96  and  _97
REMARK   44  A    between atoms: _100  and  _102
REMARK   45  A    between atoms: _102  and  _103
REMARK   46  A    between atoms: _105  and  _107
REMARK   47  A    between atoms: _107  and  _108
REMARK   48  A    between atoms: _107  and  _110
REMARK   49  A    between atoms: _110  and  _111
REMARK   50  A    between atoms: _113  and  _115
REMARK   51  A    between atoms: _115  and  _116
REMARK   52  A    between atoms: _119  and  _121
REMARK   53  A    between atoms: _121  and  _122
REMARK   54  A    between atoms: _124  and  _126
REMARK   55  A    between atoms: _126  and  _127
REMARK   56  A    between atoms: _129  and  _131
REMARK   57  A    between atoms: _131  and  _132
REMARK   58  A    between atoms: _131  and  _134
REMARK   59  A    between atoms: _134  and  _135
REMARK   60  A    between atoms: _138  and  _140
REMARK   61  A    between atoms: _140  and  _141
REMARK   62  A    between atoms: _140  and  _143
REMARK   63  A    between atoms: _143  and  _144
REMARK   64  A    between atoms: _149  and  _151
REMARK   65  A    between atoms: _151  and  _152
REMARK   66  A    between atoms: _151  and  _154
REMARK   67  A    between atoms: _157  and  _159
REMARK   68  A    between atoms: _159  and  _160
REMARK   69  A    between atoms: _159  and  _162
REMARK   70  A    between atoms: _162  and  _163
REMARK   71  A    between atoms: _165  and  _167
REMARK   72  A    between atoms: _167  and  _168
REMARK   73  A    between atoms: _170  and  _172
REMARK   74  A    between atoms: _172  and  _173
REMARK   75  A    between atoms: _172  and  _175
REMARK   76  A    between atoms: _175  and  _176
REMARK   77  A    between atoms: _179  and  _181
REMARK   78  A    between atoms: _181  and  _182
REMARK   79  A    between atoms: _185  and  _187
REMARK   80  A    between atoms: _187  and  _188
REMARK   81  A    between atoms: _187  and  _190
REMARK   82  A    between atoms: _190  and  _191
REMARK   83  A    between atoms: _197  and  _199
REMARK   84  A    between atoms: _199  and  _200
REMARK   85  A    between atoms: _199  and  _202
REMARK   86  A    between atoms: _202  and  _203
REMARK   87  A    between atoms: _206  and  _208
REMARK   88  A    between atoms: _208  and  _209
REMARK   89  A    between atoms: _208  and  _211
REMARK   90  A    between atoms: _211  and  _212
REMARK   91  A    between atoms: _217  and  _219
REMARK   92  A    between atoms: _219  and  _220
REMARK   93  A    between atoms: _222  and  _224
REMARK   94  A    between atoms: _224  and  _225
REMARK   95  A    between atoms: _224  and  _227
REMARK   96  A    between atoms: _227  and  _228
REMARK   97  A    between atoms: _231  and  _233
REMARK   98  A    between atoms: _233  and  _234
REMARK   99  A    between atoms: _233  and  _236
REMARK  100  A    between atoms: _236  and  _237
REMARK  101  A    between atoms: _240  and  _242
REMARK  102  A    between atoms: _242  and  _243
REMARK  103  A    between atoms: _246  and  _248
REMARK  104  A    between atoms: _248  and  _249
REMARK  105  A    between atoms: _248  and  _251
REMARK  106  A    between atoms: _254  and  _256
REMARK  107  A    between atoms: _256  and  _257
REMARK  108  A    between atoms: _256  and  _259
REMARK  109  A    between atoms: _259  and  _260
REMARK  110  A    between atoms: _260  and  _261
REMARK  111  A    between atoms: _264  and  _266
REMARK  112  A    between atoms: _266  and  _267
REMARK  113  A    between atoms: _266  and  _269
REMARK  114  A    between atoms: _269  and  _270
REMARK  115  A    between atoms: _270  and  _271
REMARK  116  A    between atoms: _273  and  _275
REMARK  117  A    between atoms: _275  and  _276
REMARK  118  A    between atoms: _275  and  _278
REMARK  119  A    between atoms: _278  and  _279
REMARK  120  A    between atoms: _279  and  _280
REMARK  121  A    between atoms: _283  and  _285
REMARK  122  A    between atoms: _285  and  _286
REMARK  123  A    between atoms: _289  and  _291
REMARK  124  A    between atoms: _291  and  _292
REMARK  125  A    between atoms: _291  and  _294
REMARK  126  A    between atoms: _294  and  _295
REMARK  127  A    between atoms: _295  and  _296
REMARK  128  A    between atoms: _296  and  _297
REMARK  129  A    between atoms: _306  and  _308
REMARK  130  A    between atoms: _308  and  _309
REMARK  131  A    between atoms: _312  and  _314
REMARK  132  A    between atoms: _314  and  _315
REMARK  133  A    between atoms: _314  and  _317
REMARK  134  A    between atoms: _317  and  _318
REMARK  135  A    between atoms: _321  and  _323
REMARK  136  A    between atoms: _323  and  _324
REMARK  137  A    between atoms: _323  and  _326
REMARK  138  A    between atoms: _326  and  _327
REMARK  139  A    between atoms: _329  and  _331
REMARK  140  A    between atoms: _331  and  _332
REMARK  141  A    between atoms: _331  and  _334
REMARK  142  A    between atoms: _334  and  _335
REMARK  143  A    between atoms: _338  and  _340
REMARK  144  A    between atoms: _340  and  _341
REMARK  145  A    between atoms: _340  and  _343
REMARK  146  A    between atoms: _346  and  _348
REMARK  147  A    between atoms: _348  and  _349
REMARK  148  A    between atoms: _352  and  _354
REMARK  149  A    between atoms: _354  and  _355
REMARK  150  A    between atoms: _354  and  _357
REMARK  151  A    between atoms: _357  and  _358
REMARK  152  A    between atoms: _361  and  _363
REMARK  153  A    between atoms: _363  and  _364
REMARK  154  A    between atoms: _363  and  _366
REMARK  155  A    between atoms: _366  and  _367
REMARK  156  A    between atoms: _367  and  _368
REMARK  157  A    between atoms: _373  and  _375
REMARK  158  A    between atoms: _375  and  _376
REMARK  159  A    between atoms: _375  and  _378
REMARK  160  A    between atoms: _378  and  _379
REMARK  161  A    between atoms: _381  and  _383
REMARK  162  A    between atoms: _383  and  _384
REMARK  163  A    between atoms: _383  and  _386
REMARK  164  A    between atoms: _386  and  _387
REMARK  165  A    between atoms: _392  and  _394
REMARK  166  A    between atoms: _394  and  _395
REMARK  167  A    between atoms: _394  and  _397
REMARK  168  A    between atoms: _397  and  _398
REMARK  169  A    between atoms: _400  and  _402
REMARK  170  A    between atoms: _402  and  _403
REMARK  171  A    between atoms: _402  and  _405
REMARK  172  A    between atoms: _405  and  _406
REMARK  173  A    between atoms: _412  and  _414
REMARK  174  A    between atoms: _414  and  _415
REMARK  175  A    between atoms: _414  and  _417
REMARK  176  A    between atoms: _417  and  _418
REMARK  177  A    between atoms: _421  and  _423
REMARK  178  A    between atoms: _423  and  _424
REMARK  179  A    between atoms: _423  and  _426
REMARK  180  A    between atoms: _426  and  _427
REMARK  181  A    between atoms: _430  and  _432
REMARK  182  A    between atoms: _432  and  _433
REMARK  183  A    between atoms: _436  and  _438
REMARK  184  A    between atoms: _438  and  _439
REMARK  185  A    between atoms: _438  and  _441
REMARK  186  A    between atoms: _441  and  _442
REMARK  187  A    between atoms: _445  and  _447
REMARK  188  A    between atoms: _447  and  _448
REMARK  189  A    between atoms: _447  and  _450
REMARK  190  A    between atoms: _453  and  _455
REMARK  191  A    between atoms: _455  and  _456
REMARK  192  A    between atoms: _459  and  _461
REMARK  193  A    between atoms: _461  and  _462
REMARK  194  A    between atoms: _461  and  _464
REMARK  195  A    between atoms: _464  and  _465
REMARK  196  A    between atoms: _471  and  _473
REMARK  197  A    between atoms: _473  and  _474
REMARK  198  A    between atoms: _476  and  _478
REMARK  199  A    between atoms: _478  and  _479
REMARK  200  A    between atoms: _478  and  _481
REMARK  201  A    between atoms: _481  and  _482
REMARK  202  A    between atoms: _487  and  _488
REMARK  203  A    between atoms: _490  and  _492
REMARK  204  A    between atoms: _492  and  _493
REMARK  205  A    between atoms: _492  and  _495
REMARK  206  A    between atoms: _495  and  _496
REMARK  207  A    between atoms: _500  and  _501
REMARK  208  A    between atoms: _506  and  _508
REMARK  209  A    between atoms: _508  and  _509
REMARK                            x       y       z     vdW  Elec       q    Type
REMARK                         _______ _______ _______ _____ _____    ______ ____
ROOT
ATOM      1  C   GLU A   1     -41.536   7.025   9.013  0.00  0.00    +0.238 C 
ATOM      2  N   GLU A   2     -40.626   6.428   9.776  0.00  0.00    -0.298 N 
ATOM      3  H   GLU A   2     -39.622   6.498   9.512  0.00  0.00    +0.150 HD
ATOM      4  O   GLU A   1     -42.743   7.012   9.260  0.00  0.00    -0.274 OA
ENDROOT
BRANCH   1   5
ATOM      5  CA  GLU A   1     -41.011   7.749   7.798  0.00  0.00    +0.145 C 
BRANCH   5   6
ATOM      6  N   GLU A   1     -39.665   8.253   8.001  0.00  0.00    -0.238 NA
ATOM      7  H   GLU A   1     -38.901   7.881   7.401  0.00  0.00    +0.142 HD
ENDBRANCH   5   6
BRANCH   5   8
ATOM      8  CB  GLU A   1     -41.064   6.831   6.581  0.00  0.00    +0.038 C 
BRANCH   8   9
ATOM      9  CG  GLU A   1     -40.812   7.576   5.278  0.00  0.00    +0.116 C 
BRANCH   9  10
ATOM     10  CD  GLU A   1     -39.336   7.752   4.953  0.00  0.00    +0.365 C 
ATOM     11  OE2 GLU A   1     -38.472   7.639   5.858  0.00  0.00    -0.246 OA
ATOM     12  OE1 GLU A   1     -39.034   7.985   3.769  0.00  0.00    -0.246 OA
ENDBRANCH   9  10
ENDBRANCH   8   9
ENDBRANCH   5   8
ENDBRANCH   1   5
BRANCH   2  13
ATOM     13  CA  GLU A   2     -40.993   5.676  10.975  0.00  0.00    +0.137 C 
BRANCH  13  14
ATOM     14  C   GLU A   2     -41.202   6.579  12.203  0.00  0.00    +0.227 C 
ATOM     15  O   GLU A   2     -41.874   6.189  13.142  0.00  0.00    -0.286 OA
ENDBRANCH  13  14
BRANCH  13  16
ATOM     16  CB  GLU A   2     -39.912   4.638  11.275  0.00  0.00    +0.039 C 
BRANCH  16  17
ATOM     17  CG  GLU A   2     -39.810   3.544  10.202  0.00  0.00    +0.116 C 
BRANCH  17  18
ATOM     18  CD  GLU A   2     -38.563   2.660  10.324  0.00  0.00    +0.365 C 
ATOM     19  OE2 GLU A   2     -37.491   3.156  10.735  0.00  0.00    -0.246 OA
ATOM     20  OE1 GLU A   2     -38.651   1.467   9.971  0.00  0.00    -0.246 OA
ENDBRANCH  17  18
ENDBRANCH  16  17
ENDBRANCH  13  16
ENDBRANCH   2  13
TORSDOF 10
REMARK  Name = ../refined-set-2016/4f3c/4f3c_pocket.pdb
REMARK  209 active torsions:
REMARK  status: ('A' for Active; 'I' for Inactive)
REMARK    1  A    between atoms: _1  and  _3
REMARK    2  A    between atoms: _3  and  _4
REMARK    3  A    between atoms: _6  and  _8
REMARK    4  A    between atoms: _8  and  _9
REMARK    5  A    between atoms: _12  and  _14
REMARK    6  A    between atoms: _14  and  _15
REMARK    7  A    between atoms: _14  and  _17
REMARK    8  A    between atoms: _17  and  _18
REMARK    9  A    between atoms: _18  and  _19
REMARK   10  A    between atoms: _21  and  _23
REMARK   11  A    between atoms: _23  and  _24
REMARK   12  A    between atoms: _23  and  _26
REMARK   13  A    between atoms: _26  and  _27
REMARK   14  A    between atoms: _27  and  _28
REMARK   15  A    between atoms: _31  and  _33
REMARK   16  A    between atoms: _33  and  _34
REMARK   17  A    between atoms: _33  and  _36
REMARK   18  A    between atoms: _36  and  _37
REMARK   19  A    between atoms: _37  and  _38
REMARK   20  A    between atoms: _41  and  _43
REMARK   21  A    between atoms: _43  and  _44
REMARK   22  A    between atoms: _43  and  _46
REMARK   23  A    between atoms: _46  and  _47
REMARK   24  A    between atoms: _49  and  _51
REMARK   25  A    between atoms: _51  and  _52
REMARK   26  A    between atoms: _54  and  _56
REMARK   27  A    between atoms: _56  and  _57
REMARK   28  A    between atoms: _56  and  _59
REMARK   29  A    between atoms: _59  and  _60
REMARK   30  A    between atoms: _63  and  _65
REMARK   31  A    between atoms: _65  and  _66
REMARK   32  A    between atoms: _68  and  _70
REMARK   33  A    between atoms: _70  and  _71
REMARK   34  A    between atoms: _74  and  _76
REMARK   35  A    between atoms: _76  and  _77
REMARK   36  A    between atoms: _80  and  _82
REMARK   37  A    between atoms: _82  and  _83
REMARK   38  A    between atoms: _82  and  _85
REMARK   39  A    between atoms: _85  and  _86
REMARK   40  A    between atoms: _91  and  _93
REMARK   41  A    between atoms: _93  and  _94
REMARK   42  A    between atoms: _93  and  _96
REMARK   43  A    between atoms: _96  and  _97
REMARK   44  A    between atoms: _100  and  _102
REMARK   45  A    between atoms: _102  and  _103
REMARK   46  A    between atoms: _105  and  _107
REMARK   47  A    between atoms: _107  and  _108
REMARK   48  A    between atoms: _107  and  _110
REMARK   49  A    between atoms: _110  and  _111
REMARK   50  A    between atoms: _113  and  _115
REMARK   51  A    between atoms: _115  and  _116
REMARK   52  A    between atoms: _119  and  _121
REMARK   53  A    between atoms: _121  and  _122
REMARK   54  A    between atoms: _124  and  _126
REMARK   55  A    between atoms: _126  and  _127
REMARK   56  A    between atoms: _129  and  _131
REMARK   57  A    between atoms: _131  and  _132
REMARK   58  A    between atoms: _131  and  _134
REMARK   59  A    between atoms: _134  and  _135
REMARK   60  A    between atoms: _138  and  _140
REMARK   61  A    between atoms: _140  and  _141
REMARK   62  A    between atoms: _140  and  _143
REMARK   63  A    between atoms: _143  and  _144
REMARK   64  A    between atoms: _149  and  _151
REMARK   65  A    between atoms: _151  and  _152
REMARK   66  A    between atoms: _151  and  _154
REMARK   67  A    between atoms: _157  and  _159
REMARK   68  A    between atoms: _159  and  _160
REMARK   69  A    between atoms: _159  and  _162
REMARK   70  A    between atoms: _162  and  _163
REMARK   71  A    between atoms: _165  and  _167
REMARK   72  A    between atoms: _167  and  _168
REMARK   73  A    between atoms: _170  and  _172
REMARK   74  A    between atoms: _172  and  _173
REMARK   75  A    between atoms: _172  and  _175
REMARK   76  A    between atoms: _175  and  _176
REMARK   77  A    between atoms: _179  and  _181
REMARK   78  A    between atoms: _181  and  _182
REMARK   79  A    between atoms: _185  and  _187
REMARK   80  A    between atoms: _187  and  _188
REMARK   81  A    between atoms: _187  and  _190
REMARK   82  A    between atoms: _190  and  _191
REMARK   83  A    between atoms: _197  and  _199
REMARK   84  A    between atoms: _199  and  _200
REMARK   85  A    between atoms: _199  and  _202
REMARK   86  A    between atoms: _202  and  _203
REMARK   87  A    between atoms: _206  and  _208
REMARK   88  A    between atoms: _208  and  _209
REMARK   89  A    between atoms: _208  and  _211
REMARK   90  A    between atoms: _211  and  _212
REMARK   91  A    between atoms: _217  and  _219
REMARK   92  A    between atoms: _219  and  _220
REMARK   93  A    between atoms: _222  and  _224
REMARK   94  A    between atoms: _224  and  _225
REMARK   95  A    between atoms: _224  and  _227
REMARK   96  A    between atoms: _227  and  _228
REMARK   97  A    between atoms: _231  and  _233
REMARK   98  A    between atoms: _233  and  _234
REMARK   99  A    between atoms: _233  and  _236
REMARK  100  A    between atoms: _236  and  _237
REMARK  101  A    between atoms: _240  and  _242
REMARK  102  A    between atoms: _242  and  _243
REMARK  103  A    between atoms: _246  and  _248
REMARK  104  A    between atoms: _248  and  _249
REMARK  105  A    between atoms: _248  and  _251
REMARK  106  A    between atoms: _254  and  _256
REMARK  107  A    between atoms: _256  and  _257
REMARK  108  A    between atoms: _256  and  _259
REMARK  109  A    between atoms: _259  and  _260
REMARK  110  A    between atoms: _260  and  _261
REMARK  111  A    between atoms: _264  and  _266
REMARK  112  A    between atoms: _266  and  _267
REMARK  113  A    between atoms: _266  and  _269
REMARK  114  A    between atoms: _269  and  _270
REMARK  115  A    between atoms: _270  and  _271
REMARK  116  A    between atoms: _273  and  _275
REMARK  117  A    between atoms: _275  and  _276
REMARK  118  A    between atoms: _275  and  _278
REMARK  119  A    between atoms: _278  and  _279
REMARK  120  A    between atoms: _279  and  _280
REMARK  121  A    between atoms: _283  and  _285
REMARK  122  A    between atoms: _285  and  _286
REMARK  123  A    between atoms: _289  and  _291
REMARK  124  A    between atoms: _291  and  _292
REMARK  125  A    between atoms: _291  and  _294
REMARK  126  A    between atoms: _294  and  _295
REMARK  127  A    between atoms: _295  and  _296
REMARK  128  A    between atoms: _296  and  _297
REMARK  129  A    between atoms: _306  and  _308
REMARK  130  A    between atoms: _308  and  _309
REMARK  131  A    between atoms: _312  and  _314
REMARK  132  A    between atoms: _314  and  _315
REMARK  133  A    between atoms: _314  and  _317
REMARK  134  A    between atoms: _317  and  _318
REMARK  135  A    between atoms: _321  and  _323
REMARK  136  A    between atoms: _323  and  _324
REMARK  137  A    between atoms: _323  and  _326
REMARK  138  A    between atoms: _326  and  _327
REMARK  139  A    between atoms: _329  and  _331
REMARK  140  A    between atoms: _331  and  _332
REMARK  141  A    between atoms: _331  and  _334
REMARK  142  A    between atoms: _334  and  _335
REMARK  143  A    between atoms: _338  and  _340
REMARK  144  A    between atoms: _340  and  _341
REMARK  145  A    between atoms: _340  and  _343
REMARK  146  A    between atoms: _346  and  _348
REMARK  147  A    between atoms: _348  and  _349
REMARK  148  A    between atoms: _352  and  _354
REMARK  149  A    between atoms: _354  and  _355
REMARK  150  A    between atoms: _354  and  _357
REMARK  151  A    between atoms: _357  and  _358
REMARK  152  A    between atoms: _361  and  _363
REMARK  153  A    between atoms: _363  and  _364
REMARK  154  A    between atoms: _363  and  _366
REMARK  155  A    between atoms: _366  and  _367
REMARK  156  A    between atoms: _367  and  _368
REMARK  157  A    between atoms: _373  and  _375
REMARK  158  A    between atoms: _375  and  _376
REMARK  159  A    between atoms: _375  and  _378
REMARK  160  A    between atoms: _378  and  _379
REMARK  161  A    between atoms: _381  and  _383
REMARK  162  A    between atoms: _383  and  _384
REMARK  163  A    between atoms: _383  and  _386
REMARK  164  A    between atoms: _386  and  _387
REMARK  165  A    between atoms: _392  and  _394
REMARK  166  A    between atoms: _394  and  _395
REMARK  167  A    between atoms: _394  and  _397
REMARK  168  A    between atoms: _397  and  _398
REMARK  169  A    between atoms: _400  and  _402
REMARK  170  A    between atoms: _402  and  _403
REMARK  171  A    between atoms: _402  and  _405
REMARK  172  A    between atoms: _405  and  _406
REMARK  173  A    between atoms: _412  and  _414
REMARK  174  A    between atoms: _414  and  _415
REMARK  175  A    between atoms: _414  and  _417
REMARK  176  A    between atoms: _417  and  _418
REMARK  177  A    between atoms: _421  and  _423
REMARK  178  A    between atoms: _423  and  _424
REMARK  179  A    between atoms: _423  and  _426
REMARK  180  A    between atoms: _426  and  _427
REMARK  181  A    between atoms: _430  and  _432
REMARK  182  A    between atoms: _432  and  _433
REMARK  183  A    between atoms: _436  and  _438
REMARK  184  A    between atoms: _438  and  _439
REMARK  185  A    between atoms: _438  and  _441
REMARK  186  A    between atoms: _441  and  _442
REMARK  187  A    between atoms: _445  and  _447
REMARK  188  A    between atoms: _447  and  _448
REMARK  189  A    between atoms: _447  and  _450
REMARK  190  A    between atoms: _453  and  _455
REMARK  191  A    between atoms: _455  and  _456
REMARK  192  A    between atoms: _459  and  _461
REMARK  193  A    between atoms: _461  and  _462
REMARK  194  A    between atoms: _461  and  _464
REMARK  195  A    between atoms: _464  and  _465
REMARK  196  A    between atoms: _471  and  _473
REMARK  197  A    between atoms: _473  and  _474
REMARK  198  A    between atoms: _476  and  _478
REMARK  199  A    between atoms: _478  and  _479
REMARK  200  A    between atoms: _478  and  _481
REMARK  201  A    between atoms: _481  and  _482
REMARK  202  A    between atoms: _487  and  _488
REMARK  203  A    between atoms: _490  and  _492
REMARK  204  A    between atoms: _492  and  _493
REMARK  205  A    between atoms: _492  and  _495
REMARK  206  A    between atoms: _495  and  _496
REMARK  207  A    between atoms: _500  and  _501
REMARK  208  A    between atoms: _506  and  _508
REMARK  209  A    between atoms: _508  and  _509
REMARK                            x       y       z     vdW  Elec       q    Type
REMARK                         _______ _______ _______ _____ _____    ______ ____
ROOT
ATOM      1  C   GLY A   2     -30.506   4.813  10.631  0.00  0.00    +0.243 C 
ATOM      2  O   GLY A   2     -30.806   4.155  11.642  0.00  0.00    -0.273 OA
ATOM      3  N   ILE A   3     -30.111   4.252   9.493  0.00  0.00    -0.297 N 
ATOM      4  H   ILE A   3     -29.641   4.846   8.781  0.00  0.00    +0.150 HD
ENDROOT
BRANCH   1   5
ATOM      5  CA  GLY A   2     -30.553   6.354  10.652  0.00  0.00    +0.176 C 
BRANCH   5   8
ATOM      6  C   SER A   1     -30.371   6.993  12.975  0.00  0.00    +0.241 C 
ATOM      7  O   SER A   1     -29.155   7.105  12.878  0.00  0.00    -0.274 OA
ATOM      8  N   GLY A   2     -31.131   6.754  11.922  0.00  0.00    -0.295 N 
ATOM      9  H   GLY A   2     -32.163   6.854  12.004  0.00  0.00    +0.150 HD
BRANCH   6  10
ATOM     10  CA  SER A   1     -31.045   7.086  14.331  0.00  0.00    +0.174 C 
BRANCH  10  11
ATOM     11  N   SER A   1     -32.445   7.574  14.338  0.00  0.00    -0.236 NA
ATOM     12  H   SER A   1     -33.215   6.876  14.307  0.00  0.00    +0.142 HD
ENDBRANCH  10  11
BRANCH  10  13
ATOM     13  CB  SER A   1     -30.941   5.700  15.019  0.00  0.00    +0.163 C 
BRANCH  13  14
ATOM     14  OG  SER A   1     -31.646   4.677  14.292  0.00  0.00    -0.380 OA
ATOM     15  H   SER A   1     -31.265   4.598  13.382  0.00  0.00    +0.211 HD
ENDBRANCH  13  14
ENDBRANCH  10  13
ENDBRANCH   6  10
ENDBRANCH   5   8
ENDBRANCH   1   5
BRANCH   3  16
ATOM     16  CA  ILE A   3     -30.313   2.816   9.198  0.00  0.00    +0.149 C 
BRANCH  16  17
ATOM     17  C   ILE A   3     -29.069   1.949   9.493  0.00  0.00    +0.241 C 
ATOM     18  N   GLY A   4     -29.301   0.808  10.116  0.00  0.00    -0.296 N 
ATOM     19  H   GLY A   4     -30.260   0.604  10.463  0.00  0.00    +0.150 HD
ATOM     20  O   ILE A   3     -27.931   2.294   9.160  0.00  0.00    -0.273 OA
BRANCH  18  21
ATOM     21  CA  GLY A   4     -28.247  -0.168  10.327  0.00  0.00    +0.163 C 
BRANCH  21  22
ATOM     22  C   GLY A   4     -27.699  -0.147  11.735  0.00  0.00    +0.229 C 
ATOM     23  O   GLY A   4     -28.130   0.652  12.601  0.00  0.00    -0.286 OA
ENDBRANCH  21  22
ENDBRANCH  18  21
ENDBRANCH  16  17
BRANCH  16  24
ATOM     24  CB  ILE A   3     -30.767   2.651   7.727  0.00  0.00    +0.027 C 
ATOM     25  CG2 ILE A   3     -30.641   1.193   7.263  0.00  0.00    +0.002 C 
BRANCH  24  26
ATOM     26  CG1 ILE A   3     -32.208   3.143   7.567  0.00  0.00    +0.002 C 
ATOM     27  CD1 ILE A   3     -32.634   3.340   6.135  0.00  0.00    +0.000 C 
ENDBRANCH  24  26
ENDBRANCH  16  24
ENDBRANCH   3  16
TORSDOF 12
REMARK  Name = ../refined-set-2016/4f3c/4f3c_pocket.pdb
REMARK  209 active torsions:
REMARK  status: ('A' for Active; 'I' for Inactive)
REMARK    1  A    between atoms: _1  and  _3
REMARK    2  A    between atoms: _3  and  _4
REMARK    3  A    between atoms: _6  and  _8
REMARK    4  A    between atoms: _8  and  _9
REMARK    5  A    between atoms: _12  and  _14
REMARK    6  A    between atoms: _14  and  _15
REMARK    7  A    between atoms: _14  and  _17
REMARK    8  A    between atoms: _17  and  _18
REMARK    9  A    between atoms: _18  and  _19
REMARK   10  A    between atoms: _21  and  _23
REMARK   11  A    between atoms: _23  and  _24
REMARK   12  A    between atoms: _23  and  _26
REMARK   13  A    between atoms: _26  and  _27
REMARK   14  A    between atoms: _27  and  _28
REMARK   15  A    between atoms: _31  and  _33
REMARK   16  A    between atoms: _33  and  _34
REMARK   17  A    between atoms: _33  and  _36
REMARK   18  A    between atoms: _36  and  _37
REMARK   19  A    between atoms: _37  and  _38
REMARK   20  A    between atoms: _41  and  _43
REMARK   21  A    between atoms: _43  and  _44
REMARK   22  A    between atoms: _43  and  _46
REMARK   23  A    between atoms: _46  and  _47
REMARK   24  A    between atoms: _49  and  _51
REMARK   25  A    between atoms: _51  and  _52
REMARK   26  A    between atoms: _54  and  _56
REMARK   27  A    between atoms: _56  and  _57
REMARK   28  A    between atoms: _56  and  _59
REMARK   29  A    between atoms: _59  and  _60
REMARK   30  A    between atoms: _63  and  _65
REMARK   31  A    between atoms: _65  and  _66
REMARK   32  A    between atoms: _68  and  _70
REMARK   33  A    between atoms: _70  and  _71
REMARK   34  A    between atoms: _74  and  _76
REMARK   35  A    between atoms: _76  and  _77
REMARK   36  A    between atoms: _80  and  _82
REMARK   37  A    between atoms: _82  and  _83
REMARK   38  A    between atoms: _82  and  _85
REMARK   39  A    between atoms: _85  and  _86
REMARK   40  A    between atoms: _91  and  _93
REMARK   41  A    between atoms: _93  and  _94
REMARK   42  A    between atoms: _93  and  _96
REMARK   43  A    between atoms: _96  and  _97
REMARK   44  A    between atoms: _100  and  _102
REMARK   45  A    between atoms: _102  and  _103
REMARK   46  A    between atoms: _105  and  _107
REMARK   47  A    between atoms: _107  and  _108
REMARK   48  A    between atoms: _107  and  _110
REMARK   49  A    between atoms: _110  and  _111
REMARK   50  A    between atoms: _113  and  _115
REMARK   51  A    between atoms: _115  and  _116
REMARK   52  A    between atoms: _119  and  _121
REMARK   53  A    between atoms: _121  and  _122
REMARK   54  A    between atoms: _124  and  _126
REMARK   55  A    between atoms: _126  and  _127
REMARK   56  A    between atoms: _129  and  _131
REMARK   57  A    between atoms: _131  and  _132
REMARK   58  A    between atoms: _131  and  _134
REMARK   59  A    between atoms: _134  and  _135
REMARK   60  A    between atoms: _138  and  _140
REMARK   61  A    between atoms: _140  and  _141
REMARK   62  A    between atoms: _140  and  _143
REMARK   63  A    between atoms: _143  and  _144
REMARK   64  A    between atoms: _149  and  _151
REMARK   65  A    between atoms: _151  and  _152
REMARK   66  A    between atoms: _151  and  _154
REMARK   67  A    between atoms: _157  and  _159
REMARK   68  A    between atoms: _159  and  _160
REMARK   69  A    between atoms: _159  and  _162
REMARK   70  A    between atoms: _162  and  _163
REMARK   71  A    between atoms: _165  and  _167
REMARK   72  A    between atoms: _167  and  _168
REMARK   73  A    between atoms: _170  and  _172
REMARK   74  A    between atoms: _172  and  _173
REMARK   75  A    between atoms: _172  and  _175
REMARK   76  A    between atoms: _175  and  _176
REMARK   77  A    between atoms: _179  and  _181
REMARK   78  A    between atoms: _181  and  _182
REMARK   79  A    between atoms: _185  and  _187
REMARK   80  A    between atoms: _187  and  _188
REMARK   81  A    between atoms: _187  and  _190
REMARK   82  A    between atoms: _190  and  _191
REMARK   83  A    between atoms: _197  and  _199
REMARK   84  A    between atoms: _199  and  _200
REMARK   85  A    between atoms: _199  and  _202
REMARK   86  A    between atoms: _202  and  _203
REMARK   87  A    between atoms: _206  and  _208
REMARK   88  A    between atoms: _208  and  _209
REMARK   89  A    between atoms: _208  and  _211
REMARK   90  A    between atoms: _211  and  _212
REMARK   91  A    between atoms: _217  and  _219
REMARK   92  A    between atoms: _219  and  _220
REMARK   93  A    between atoms: _222  and  _224
REMARK   94  A    between atoms: _224  and  _225
REMARK   95  A    between atoms: _224  and  _227
REMARK   96  A    between atoms: _227  and  _228
REMARK   97  A    between atoms: _231  and  _233
REMARK   98  A    between atoms: _233  and  _234
REMARK   99  A    between atoms: _233  and  _236
REMARK  100  A    between atoms: _236  and  _237
REMARK  101  A    between atoms: _240  and  _242
REMARK  102  A    between atoms: _242  and  _243
REMARK  103  A    between atoms: _246  and  _248
REMARK  104  A    between atoms: _248  and  _249
REMARK  105  A    between atoms: _248  and  _251
REMARK  106  A    between atoms: _254  and  _256
REMARK  107  A    between atoms: _256  and  _257
REMARK  108  A    between atoms: _256  and  _259
REMARK  109  A    between atoms: _259  and  _260
REMARK  110  A    between atoms: _260  and  _261
REMARK  111  A    between atoms: _264  and  _266
REMARK  112  A    between atoms: _266  and  _267
REMARK  113  A    between atoms: _266  and  _269
REMARK  114  A    between atoms: _269  and  _270
REMARK  115  A    between atoms: _270  and  _271
REMARK  116  A    between atoms: _273  and  _275
REMARK  117  A    between atoms: _275  and  _276
REMARK  118  A    between atoms: _275  and  _278
REMARK  119  A    between atoms: _278  and  _279
REMARK  120  A    between atoms: _279  and  _280
REMARK  121  A    between atoms: _283  and  _285
REMARK  122  A    between atoms: _285  and  _286
REMARK  123  A    between atoms: _289  and  _291
REMARK  124  A    between atoms: _291  and  _292
REMARK  125  A    between atoms: _291  and  _294
REMARK  126  A    between atoms: _294  and  _295
REMARK  127  A    between atoms: _295  and  _296
REMARK  128  A    between atoms: _296  and  _297
REMARK  129  A    between atoms: _306  and  _308
REMARK  130  A    between atoms: _308  and  _309
REMARK  131  A    between atoms: _312  and  _314
REMARK  132  A    between atoms: _314  and  _315
REMARK  133  A    between atoms: _314  and  _317
REMARK  134  A    between atoms: _317  and  _318
REMARK  135  A    between atoms: _321  and  _323
REMARK  136  A    between atoms: _323  and  _324
REMARK  137  A    between atoms: _323  and  _326
REMARK  138  A    between atoms: _326  and  _327
REMARK  139  A    between atoms: _329  and  _331
REMARK  140  A    between atoms: _331  and  _332
REMARK  141  A    between atoms: _331  and  _334
REMARK  142  A    between atoms: _334  and  _335
REMARK  143  A    between atoms: _338  and  _340
REMARK  144  A    between atoms: _340  and  _341
REMARK  145  A    between atoms: _340  and  _343
REMARK  146  A    between atoms: _346  and  _348
REMARK  147  A    between atoms: _348  and  _349
REMARK  148  A    between atoms: _352  and  _354
REMARK  149  A    between atoms: _354  and  _355
REMARK  150  A    between atoms: _354  and  _357
REMARK  151  A    between atoms: _357  and  _358
REMARK  152  A    between atoms: _361  and  _363
REMARK  153  A    between atoms: _363  and  _364
REMARK  154  A    between atoms: _363  and  _366
REMARK  155  A    between atoms: _366  and  _367
REMARK  156  A    between atoms: _367  and  _368
REMARK  157  A    between atoms: _373  and  _375
REMARK  158  A    between atoms: _375  and  _376
REMARK  159  A    between atoms: _375  and  _378
REMARK  160  A    between atoms: _378  and  _379
REMARK  161  A    between atoms: _381  and  _383
REMARK  162  A    between atoms: _383  and  _384
REMARK  163  A    between atoms: _383  and  _386
REMARK  164  A    between atoms: _386  and  _387
REMARK  165  A    between atoms: _392  and  _394
REMARK  166  A    between atoms: _394  and  _395
REMARK  167  A    between atoms: _394  and  _397
REMARK  168  A    between atoms: _397  and  _398
REMARK  169  A    between atoms: _400  and  _402
REMARK  170  A    between atoms: _402  and  _403
REMARK  171  A    between atoms: _402  and  _405
REMARK  172  A    between atoms: _405  and  _406
REMARK  173  A    between atoms: _412  and  _414
REMARK  174  A    between atoms: _414  and  _415
REMARK  175  A    between atoms: _414  and  _417
REMARK  176  A    between atoms: _417  and  _418
REMARK  177  A    between atoms: _421  and  _423
REMARK  178  A    between atoms: _423  and  _424
REMARK  179  A    between atoms: _423  and  _426
REMARK  180  A    between atoms: _426  and  _427
REMARK  181  A    between atoms: _430  and  _432
REMARK  182  A    between atoms: _432  and  _433
REMARK  183  A    between atoms: _436  and  _438
REMARK  184  A    between atoms: _438  and  _439
REMARK  185  A    between atoms: _438  and  _441
REMARK  186  A    between atoms: _441  and  _442
REMARK  187  A    between atoms: _445  and  _447
REMARK  188  A    between atoms: _447  and  _448
REMARK  189  A    between atoms: _447  and  _450
REMARK  190  A    between atoms: _453  and  _455
REMARK  191  A    between atoms: _455  and  _456
REMARK  192  A    between atoms: _459  and  _461
REMARK  193  A    between atoms: _461  and  _462
REMARK  194  A    between atoms: _461  and  _464
REMARK  195  A    between atoms: _464  and  _465
REMARK  196  A    between atoms: _471  and  _473
REMARK  197  A    between atoms: _473  and  _474
REMARK  198  A    between atoms: _476  and  _478
REMARK  199  A    between atoms: _478  and  _479
REMARK  200  A    between atoms: _478  and  _481
REMARK  201  A    between atoms: _481  and  _482
REMARK  202  A    between atoms: _487  and  _488
REMARK  203  A    between atoms: _490  and  _492
REMARK  204  A    between atoms: _492  and  _493
REMARK  205  A    between atoms: _492  and  _495
REMARK  206  A    between atoms: _495  and  _496
REMARK  207  A    between atoms: _500  and  _501
REMARK  208  A    between atoms: _506  and  _508
REMARK  209  A    between atoms: _508  and  _509
REMARK                            x       y       z     vdW  Elec       q    Type
REMARK                         _______ _______ _______ _____ _____    ______ ____
ROOT
ATOM      1  C   ALA A   1     -27.146   3.991  14.456  0.00  0.00    +0.238 C 
ATOM      2  O   ALA A   1     -27.244   4.911  15.241  0.00  0.00    -0.274 OA
ATOM      3  N   ALA A   2     -27.779   2.836  14.631  0.00  0.00    -0.298 N 
ATOM      4  H   ALA A   2     -27.673   2.089  13.916  0.00  0.00    +0.150 HD
ENDROOT
BRANCH   1   5
ATOM      5  CA  ALA A   1     -26.259   4.108  13.216  0.00  0.00    +0.145 C 
ATOM      6  CB  ALA A   1     -27.095   4.350  11.965  0.00  0.00    +0.028 C 
BRANCH   5   7
ATOM      7  N   ALA A   1     -25.425   2.897  13.067  0.00  0.00    -0.238 NA
ATOM      8  H   ALA A   1     -25.493   2.327  12.200  0.00  0.00    +0.142 HD
ENDBRANCH   5   7
ENDBRANCH   1   5
BRANCH   3   9
ATOM      9  CA  ALA A   2     -28.612   2.588  15.788  0.00  0.00    +0.137 C 
ATOM     10  CB  ALA A   2     -29.390   1.282  15.627  0.00  0.00    +0.030 C 
BRANCH   9  11
ATOM     11  C   ALA A   2     -27.809   2.583  17.079  0.00  0.00    +0.227 C 
ATOM     12  O   ALA A   2     -28.286   3.092  18.102  0.00  0.00    -0.286 OA
ENDBRANCH   9  11
ENDBRANCH   3   9
TORSDOF 4
REMARK  Name = ../refined-set-2016/4f3c/4f3c_pocket.pdb
REMARK  209 active torsions:
REMARK  status: ('A' for Active; 'I' for Inactive)
REMARK    1  A    between atoms: _1  and  _3
REMARK    2  A    between atoms: _3  and  _4
REMARK    3  A    between atoms: _6  and  _8
REMARK    4  A    between atoms: _8  and  _9
REMARK    5  A    between atoms: _12  and  _14
REMARK    6  A    between atoms: _14  and  _15
REMARK    7  A    between atoms: _14  and  _17
REMARK    8  A    between atoms: _17  and  _18
REMARK    9  A    between atoms: _18  and  _19
REMARK   10  A    between atoms: _21  and  _23
REMARK   11  A    between atoms: _23  and  _24
REMARK   12  A    between atoms: _23  and  _26
REMARK   13  A    between atoms: _26  and  _27
REMARK   14  A    between atoms: _27  and  _28
REMARK   15  A    between atoms: _31  and  _33
REMARK   16  A    between atoms: _33  and  _34
REMARK   17  A    between atoms: _33  and  _36
REMARK   18  A    between atoms: _36  and  _37
REMARK   19  A    between atoms: _37  and  _38
REMARK   20  A    between atoms: _41  and  _43
REMARK   21  A    between atoms: _43  and  _44
REMARK   22  A    between atoms: _43  and  _46
REMARK   23  A    between atoms: _46  and  _47
REMARK   24  A    between atoms: _49  and  _51
REMARK   25  A    between atoms: _51  and  _52
REMARK   26  A    between atoms: _54  and  _56
REMARK   27  A    between atoms: _56  and  _57
REMARK   28  A    between atoms: _56  and  _59
REMARK   29  A    between atoms: _59  and  _60
REMARK   30  A    between atoms: _63  and  _65
REMARK   31  A    between atoms: _65  and  _66
REMARK   32  A    between atoms: _68  and  _70
REMARK   33  A    between atoms: _70  and  _71
REMARK   34  A    between atoms: _74  and  _76
REMARK   35  A    between atoms: _76  and  _77
REMARK   36  A    between atoms: _80  and  _82
REMARK   37  A    between atoms: _82  and  _83
REMARK   38  A    between atoms: _82  and  _85
REMARK   39  A    between atoms: _85  and  _86
REMARK   40  A    between atoms: _91  and  _93
REMARK   41  A    between atoms: _93  and  _94
REMARK   42  A    between atoms: _93  and  _96
REMARK   43  A    between atoms: _96  and  _97
REMARK   44  A    between atoms: _100  and  _102
REMARK   45  A    between atoms: _102  and  _103
REMARK   46  A    between atoms: _105  and  _107
REMARK   47  A    between atoms: _107  and  _108
REMARK   48  A    between atoms: _107  and  _110
REMARK   49  A    between atoms: _110  and  _111
REMARK   50  A    between atoms: _113  and  _115
REMARK   51  A    between atoms: _115  and  _116
REMARK   52  A    between atoms: _119  and  _121
REMARK   53  A    between atoms: _121  and  _122
REMARK   54  A    between atoms: _124  and  _126
REMARK   55  A    between atoms: _126  and  _127
REMARK   56  A    between atoms: _129  and  _131
REMARK   57  A    between atoms: _131  and  _132
REMARK   58  A    between atoms: _131  and  _134
REMARK   59  A    between atoms: _134  and  _135
REMARK   60  A    between atoms: _138  and  _140
REMARK   61  A    between atoms: _140  and  _141
REMARK   62  A    between atoms: _140  and  _143
REMARK   63  A    between atoms: _143  and  _144
REMARK   64  A    between atoms: _149  and  _151
REMARK   65  A    between atoms: _151  and  _152
REMARK   66  A    between atoms: _151  and  _154
REMARK   67  A    between atoms: _157  and  _159
REMARK   68  A    between atoms: _159  and  _160
REMARK   69  A    between atoms: _159  and  _162
REMARK   70  A    between atoms: _162  and  _163
REMARK   71  A    between atoms: _165  and  _167
REMARK   72  A    between atoms: _167  and  _168
REMARK   73  A    between atoms: _170  and  _172
REMARK   74  A    between atoms: _172  and  _173
REMARK   75  A    between atoms: _172  and  _175
REMARK   76  A    between atoms: _175  and  _176
REMARK   77  A    between atoms: _179  and  _181
REMARK   78  A    between atoms: _181  and  _182
REMARK   79  A    between atoms: _185  and  _187
REMARK   80  A    between atoms: _187  and  _188
REMARK   81  A    between atoms: _187  and  _190
REMARK   82  A    between atoms: _190  and  _191
REMARK   83  A    between atoms: _197  and  _199
REMARK   84  A    between atoms: _199  and  _200
REMARK   85  A    between atoms: _199  and  _202
REMARK   86  A    between atoms: _202  and  _203
REMARK   87  A    between atoms: _206  and  _208
REMARK   88  A    between atoms: _208  and  _209
REMARK   89  A    between atoms: _208  and  _211
REMARK   90  A    between atoms: _211  and  _212
REMARK   91  A    between atoms: _217  and  _219
REMARK   92  A    between atoms: _219  and  _220
REMARK   93  A    between atoms: _222  and  _224
REMARK   94  A    between atoms: _224  and  _225
REMARK   95  A    between atoms: _224  and  _227
REMARK   96  A    between atoms: _227  and  _228
REMARK   97  A    between atoms: _231  and  _233
REMARK   98  A    between atoms: _233  and  _234
REMARK   99  A    between atoms: _233  and  _236
REMARK  100  A    between atoms: _236  and  _237
REMARK  101  A    between atoms: _240  and  _242
REMARK  102  A    between atoms: _242  and  _243
REMARK  103  A    between atoms: _246  and  _248
REMARK  104  A    between atoms: _248  and  _249
REMARK  105  A    between atoms: _248  and  _251
REMARK  106  A    between atoms: _254  and  _256
REMARK  107  A    between atoms: _256  and  _257
REMARK  108  A    between atoms: _256  and  _259
REMARK  109  A    between atoms: _259  and  _260
REMARK  110  A    between atoms: _260  and  _261
REMARK  111  A    between atoms: _264  and  _266
REMARK  112  A    between atoms: _266  and  _267
REMARK  113  A    between atoms: _266  and  _269
REMARK  114  A    between atoms: _269  and  _270
REMARK  115  A    between atoms: _270  and  _271
REMARK  116  A    between atoms: _273  and  _275
REMARK  117  A    between atoms: _275  and  _276
REMARK  118  A    between atoms: _275  and  _278
REMARK  119  A    between atoms: _278  and  _279
REMARK  120  A    between atoms: _279  and  _280
REMARK  121  A    between atoms: _283  and  _285
REMARK  122  A    between atoms: _285  and  _286
REMARK  123  A    between atoms: _289  and  _291
REMARK  124  A    between atoms: _291  and  _292
REMARK  125  A    between atoms: _291  and  _294
REMARK  126  A    between atoms: _294  and  _295
REMARK  127  A    between atoms: _295  and  _296
REMARK  128  A    between atoms: _296  and  _297
REMARK  129  A    between atoms: _306  and  _308
REMARK  130  A    between atoms: _308  and  _309
REMARK  131  A    between atoms: _312  and  _314
REMARK  132  A    between atoms: _314  and  _315
REMARK  133  A    between atoms: _314  and  _317
REMARK  134  A    between atoms: _317  and  _318
REMARK  135  A    between atoms: _321  and  _323
REMARK  136  A    between atoms: _323  and  _324
REMARK  137  A    between atoms: _323  and  _326
REMARK  138  A    between atoms: _326  and  _327
REMARK  139  A    between atoms: _329  and  _331
REMARK  140  A    between atoms: _331  and  _332
REMARK  141  A    between atoms: _331  and  _334
REMARK  142  A    between atoms: _334  and  _335
REMARK  143  A    between atoms: _338  and  _340
REMARK  144  A    between atoms: _340  and  _341
REMARK  145  A    between atoms: _340  and  _343
REMARK  146  A    between atoms: _346  and  _348
REMARK  147  A    between atoms: _348  and  _349
REMARK  148  A    between atoms: _352  and  _354
REMARK  149  A    between atoms: _354  and  _355
REMARK  150  A    between atoms: _354  and  _357
REMARK  151  A    between atoms: _357  and  _358
REMARK  152  A    between atoms: _361  and  _363
REMARK  153  A    between atoms: _363  and  _364
REMARK  154  A    between atoms: _363  and  _366
REMARK  155  A    between atoms: _366  and  _367
REMARK  156  A    between atoms: _367  and  _368
REMARK  157  A    between atoms: _373  and  _375
REMARK  158  A    between atoms: _375  and  _376
REMARK  159  A    between atoms: _375  and  _378
REMARK  160  A    between atoms: _378  and  _379
REMARK  161  A    between atoms: _381  and  _383
REMARK  162  A    between atoms: _383  and  _384
REMARK  163  A    between atoms: _383  and  _386
REMARK  164  A    between atoms: _386  and  _387
REMARK  165  A    between atoms: _392  and  _394
REMARK  166  A    between atoms: _394  and  _395
REMARK  167  A    between atoms: _394  and  _397
REMARK  168  A    between atoms: _397  and  _398
REMARK  169  A    between atoms: _400  and  _402
REMARK  170  A    between atoms: _402  and  _403
REMARK  171  A    between atoms: _402  and  _405
REMARK  172  A    between atoms: _405  and  _406
REMARK  173  A    between atoms: _412  and  _414
REMARK  174  A    between atoms: _414  and  _415
REMARK  175  A    between atoms: _414  and  _417
REMARK  176  A    between atoms: _417  and  _418
REMARK  177  A    between atoms: _421  and  _423
REMARK  178  A    between atoms: _423  and  _424
REMARK  179  A    between atoms: _423  and  _426
REMARK  180  A    between atoms: _426  and  _427
REMARK  181  A    between atoms: _430  and  _432
REMARK  182  A    between atoms: _432  and  _433
REMARK  183  A    between atoms: _436  and  _438
REMARK  184  A    between atoms: _438  and  _439
REMARK  185  A    between atoms: _438  and  _441
REMARK  186  A    between atoms: _441  and  _442
REMARK  187  A    between atoms: _445  and  _447
REMARK  188  A    between atoms: _447  and  _448
REMARK  189  A    between atoms: _447  and  _450
REMARK  190  A    between atoms: _453  and  _455
REMARK  191  A    between atoms: _455  and  _456
REMARK  192  A    between atoms: _459  and  _461
REMARK  193  A    between atoms: _461  and  _462
REMARK  194  A    between atoms: _461  and  _464
REMARK  195  A    between atoms: _464  and  _465
REMARK  196  A    between atoms: _471  and  _473
REMARK  197  A    between atoms: _473  and  _474
REMARK  198  A    between atoms: _476  and  _478
REMARK  199  A    between atoms: _478  and  _479
REMARK  200  A    between atoms: _478  and  _481
REMARK  201  A    between atoms: _481  and  _482
REMARK  202  A    between atoms: _487  and  _488
REMARK  203  A    between atoms: _490  and  _492
REMARK  204  A    between atoms: _492  and  _493
REMARK  205  A    between atoms: _492  and  _495
REMARK  206  A    between atoms: _495  and  _496
REMARK  207  A    between atoms: _500  and  _501
REMARK  208  A    between atoms: _506  and  _508
REMARK  209  A    between atoms: _508  and  _509
REMARK                            x       y       z     vdW  Elec       q    Type
REMARK                         _______ _______ _______ _____ _____    ______ ____
ROOT
ATOM      1  CA  SER A   4     -41.056  -1.471  10.204  0.00  0.00    +0.178 C 
ENDROOT
BRANCH   1   4
ATOM      2  C   GLY A   3     -41.155  -0.213  12.310  0.00  0.00    +0.243 C 
ATOM      3  O   GLY A   3     -42.000  -0.938  12.828  0.00  0.00    -0.273 OA
ATOM      4  N   SER A   4     -40.635  -0.415  11.106  0.00  0.00    -0.295 N 
ATOM      5  H   SER A   4     -39.878   0.224  10.789  0.00  0.00    +0.150 HD
BRANCH   2   6
ATOM      6  CA  GLY A   3     -40.632   1.010  13.031  0.00  0.00    +0.176 C 
BRANCH   6   9
ATOM      7  C   THR A   2     -39.896   1.295  15.321  0.00  0.00    +0.243 C 
ATOM      8  O   THR A   2     -38.767   1.655  14.990  0.00  0.00    -0.273 OA
ATOM      9  N   GLY A   3     -40.843   0.946  14.452  0.00  0.00    -0.295 N 
ATOM     10  H   GLY A   3     -41.762   0.618  14.812  0.00  0.00    +0.150 HD
BRANCH   7  11
ATOM     11  CA  THR A   2     -40.304   1.257  16.793  0.00  0.00    +0.176 C 
BRANCH  11  14
ATOM     12  C   ASN A   1     -38.798   0.206  18.418  0.00  0.00    +0.239 C 
ATOM     13  O   ASN A   1     -39.379  -0.878  18.392  0.00  0.00    -0.274 OA
ATOM     14  N   THR A   2     -39.140   1.253  17.671  0.00  0.00    -0.295 N 
ATOM     15  H   THR A   2     -38.550   2.108  17.716  0.00  0.00    +0.150 HD
BRANCH  12  16
ATOM     16  CA  ASN A   1     -37.618   0.408  19.329  0.00  0.00    +0.154 C 
BRANCH  16  17
ATOM     17  N   ASN A   1     -38.122   0.304  20.712  0.00  0.00    -0.238 NA
ATOM     18  H   ASN A   1     -38.320  -0.630  21.124  0.00  0.00    +0.142 HD
ENDBRANCH  16  17
BRANCH  16  19
ATOM     19  CB  ASN A   1     -36.520  -0.630  19.051  0.00  0.00    +0.111 C 
BRANCH  19  20
ATOM     20  CG  ASN A   1     -36.037  -0.640  17.593  0.00  0.00    +0.221 C 
ATOM     21  OD1 ASN A   1     -35.686  -1.703  17.059  0.00  0.00    -0.275 OA
ATOM     22  ND2 ASN A   1     -36.008   0.522  16.948  0.00  0.00    -0.329 N 
ATOM     23 HD21 ASN A   1     -36.311   1.392  17.430  0.00  0.00    +0.145 HD
ATOM     24 HD22 ASN A   1     -35.683   0.561  15.961  0.00  0.00    +0.145 HD
ENDBRANCH  19  20
ENDBRANCH  16  19
ENDBRANCH  12  16
ENDBRANCH  11  14
BRANCH  11  25
ATOM     25  CB  THR A   2     -41.239   2.463  17.064  0.00  0.00    +0.137 C 
ATOM     26  CG2 THR A   2     -40.622   3.777  16.689  0.00  0.00    +0.034 C 
BRANCH  25  27
ATOM     27  OG1 THR A   2     -42.433   2.312  16.288  0.00  0.00    -0.382 OA
ATOM     28  HG1 THR A   2     -42.199   2.280  15.327  0.00  0.00    +0.210 HD
ENDBRANCH  25  27
ENDBRANCH  11  25
ENDBRANCH   7  11
ENDBRANCH   6   9
ENDBRANCH   2   6
ENDBRANCH   1   4
BRANCH   1  29
ATOM     29  C   SER A   4     -40.222  -2.725  10.483  0.00  0.00    +0.243 C 
ATOM     30  O   SER A   4     -39.272  -2.675  11.253  0.00  0.00    -0.273 OA
ATOM     31  N   ALA A   5     -40.569  -3.843   9.855  0.00  0.00    -0.297 N 
ATOM     32  H   ALA A   5     -41.419  -3.841   9.255  0.00  0.00    +0.150 HD
BRANCH  31  33
ATOM     33  CA  ALA A   5     -39.792  -5.080   9.981  0.00  0.00    +0.149 C 
ATOM     34  CB  ALA A   5     -39.995  -5.722  11.361  0.00  0.00    +0.031 C 
BRANCH  33  35
ATOM     35  C   ALA A   5     -40.230  -6.027   8.878  0.00  0.00    +0.241 C 
ATOM     36  N   GLY A   6     -39.361  -6.978   8.528  0.00  0.00    -0.295 N 
ATOM     37  H   GLY A   6     -38.410  -6.963   8.949  0.00  0.00    +0.150 HD
ATOM     38  O   ALA A   5     -41.335  -5.877   8.343  0.00  0.00    -0.273 OA
BRANCH  36  39
ATOM     39  CA  GLY A   6     -39.687  -8.034   7.583  0.00  0.00    +0.176 C 
BRANCH  39  40
ATOM     40  C   GLY A   6     -40.220  -9.226   8.345  0.00  0.00    +0.243 C 
ATOM     41  O   GLY A   6     -39.578  -9.709   9.272  0.00  0.00    -0.273 OA
ATOM     42  N   GLY A   7     -41.396  -9.712   7.957  0.00  0.00    -0.295 N 
ATOM     43  H   GLY A   7     -41.855  -9.306   7.117  0.00  0.00    +0.150 HD
BRANCH  42  44
ATOM     44  CA  GLY A   7     -42.057 -10.784   8.662  0.00  0.00    +0.176 C 
BRANCH  44  45
ATOM     45  C   GLY A   7     -41.514 -12.122   8.236  0.00  0.00    +0.243 C 
ATOM     46  N   LEU A   8     -41.240 -12.996   9.201  0.00  0.00    -0.298 N 
ATOM     47  H   LEU A   8     -41.363 -12.715  10.195  0.00  0.00    +0.150 HD
ATOM     48  O   GLY A   7     -41.308 -12.355   7.047  0.00  0.00    -0.273 OA
BRANCH  46  49
ATOM     49  CA  LEU A   8     -40.769 -14.343   8.890  0.00  0.00    +0.137 C 
BRANCH  49  50
ATOM     50  C   LEU A   8     -41.813 -15.400   9.279  0.00  0.00    +0.227 C 
ATOM     51  O   LEU A   8     -41.986 -16.368   8.557  0.00  0.00    -0.286 OA
ENDBRANCH  49  50
BRANCH  49  52
ATOM     52  CB  LEU A   8     -39.427 -14.639   9.580  0.00  0.00    +0.028 C 
BRANCH  52  53
ATOM     53  CG  LEU A   8     -38.260 -13.712   9.220  0.00  0.00    +0.002 C 
ATOM     54  CD2 LEU A   8     -37.067 -13.928  10.132  0.00  0.00    +0.000 C 
ATOM     55  CD1 LEU A   8     -37.856 -13.874   7.772  0.00  0.00    +0.000 C 
ENDBRANCH  52  53
ENDBRANCH  49  52
ENDBRANCH  46  49
ENDBRANCH  44  45
ENDBRANCH  42  44
ENDBRANCH  39  40
ENDBRANCH  36  39
ENDBRANCH  33  35
ENDBRANCH  31  33
ENDBRANCH   1  29
BRANCH   1  56
ATOM     56  CB  SER A   4     -40.856  -1.007   8.757  0.00  0.00    +0.166 C 
BRANCH  56  57
ATOM     57  OG  SER A   4     -39.500  -0.692   8.491  0.00  0.00    -0.380 OA
ATOM     58  H   SER A   4     -39.207   0.035   9.096  0.00  0.00    +0.211 HD
ENDBRANCH  56  57
ENDBRANCH   1  56
TORSDOF 24
REMARK  Name = ../refined-set-2016/4f3c/4f3c_pocket.pdb
REMARK  209 active torsions:
REMARK  status: ('A' for Active; 'I' for Inactive)
REMARK    1  A    between atoms: _1  and  _3
REMARK    2  A    between atoms: _3  and  _4
REMARK    3  A    between atoms: _6  and  _8
REMARK    4  A    between atoms: _8  and  _9
REMARK    5  A    between atoms: _12  and  _14
REMARK    6  A    between atoms: _14  and  _15
REMARK    7  A    between atoms: _14  and  _17
REMARK    8  A    between atoms: _17  and  _18
REMARK    9  A    between atoms: _18  and  _19
REMARK   10  A    between atoms: _21  and  _23
REMARK   11  A    between atoms: _23  and  _24
REMARK   12  A    between atoms: _23  and  _26
REMARK   13  A    between atoms: _26  and  _27
REMARK   14  A    between atoms: _27  and  _28
REMARK   15  A    between atoms: _31  and  _33
REMARK   16  A    between atoms: _33  and  _34
REMARK   17  A    between atoms: _33  and  _36
REMARK   18  A    between atoms: _36  and  _37
REMARK   19  A    between atoms: _37  and  _38
REMARK   20  A    between atoms: _41  and  _43
REMARK   21  A    between atoms: _43  and  _44
REMARK   22  A    between atoms: _43  and  _46
REMARK   23  A    between atoms: _46  and  _47
REMARK   24  A    between atoms: _49  and  _51
REMARK   25  A    between atoms: _51  and  _52
REMARK   26  A    between atoms: _54  and  _56
REMARK   27  A    between atoms: _56  and  _57
REMARK   28  A    between atoms: _56  and  _59
REMARK   29  A    between atoms: _59  and  _60
REMARK   30  A    between atoms: _63  and  _65
REMARK   31  A    between atoms: _65  and  _66
REMARK   32  A    between atoms: _68  and  _70
REMARK   33  A    between atoms: _70  and  _71
REMARK   34  A    between atoms: _74  and  _76
REMARK   35  A    between atoms: _76  and  _77
REMARK   36  A    between atoms: _80  and  _82
REMARK   37  A    between atoms: _82  and  _83
REMARK   38  A    between atoms: _82  and  _85
REMARK   39  A    between atoms: _85  and  _86
REMARK   40  A    between atoms: _91  and  _93
REMARK   41  A    between atoms: _93  and  _94
REMARK   42  A    between atoms: _93  and  _96
REMARK   43  A    between atoms: _96  and  _97
REMARK   44  A    between atoms: _100  and  _102
REMARK   45  A    between atoms: _102  and  _103
REMARK   46  A    between atoms: _105  and  _107
REMARK   47  A    between atoms: _107  and  _108
REMARK   48  A    between atoms: _107  and  _110
REMARK   49  A    between atoms: _110  and  _111
REMARK   50  A    between atoms: _113  and  _115
REMARK   51  A    between atoms: _115  and  _116
REMARK   52  A    between atoms: _119  and  _121
REMARK   53  A    between atoms: _121  and  _122
REMARK   54  A    between atoms: _124  and  _126
REMARK   55  A    between atoms: _126  and  _127
REMARK   56  A    between atoms: _129  and  _131
REMARK   57  A    between atoms: _131  and  _132
REMARK   58  A    between atoms: _131  and  _134
REMARK   59  A    between atoms: _134  and  _135
REMARK   60  A    between atoms: _138  and  _140
REMARK   61  A    between atoms: _140  and  _141
REMARK   62  A    between atoms: _140  and  _143
REMARK   63  A    between atoms: _143  and  _144
REMARK   64  A    between atoms: _149  and  _151
REMARK   65  A    between atoms: _151  and  _152
REMARK   66  A    between atoms: _151  and  _154
REMARK   67  A    between atoms: _157  and  _159
REMARK   68  A    between atoms: _159  and  _160
REMARK   69  A    between atoms: _159  and  _162
REMARK   70  A    between atoms: _162  and  _163
REMARK   71  A    between atoms: _165  and  _167
REMARK   72  A    between atoms: _167  and  _168
REMARK   73  A    between atoms: _170  and  _172
REMARK   74  A    between atoms: _172  and  _173
REMARK   75  A    between atoms: _172  and  _175
REMARK   76  A    between atoms: _175  and  _176
REMARK   77  A    between atoms: _179  and  _181
REMARK   78  A    between atoms: _181  and  _182
REMARK   79  A    between atoms: _185  and  _187
REMARK   80  A    between atoms: _187  and  _188
REMARK   81  A    between atoms: _187  and  _190
REMARK   82  A    between atoms: _190  and  _191
REMARK   83  A    between atoms: _197  and  _199
REMARK   84  A    between atoms: _199  and  _200
REMARK   85  A    between atoms: _199  and  _202
REMARK   86  A    between atoms: _202  and  _203
REMARK   87  A    between atoms: _206  and  _208
REMARK   88  A    between atoms: _208  and  _209
REMARK   89  A    between atoms: _208  and  _211
REMARK   90  A    between atoms: _211  and  _212
REMARK   91  A    between atoms: _217  and  _219
REMARK   92  A    between atoms: _219  and  _220
REMARK   93  A    between atoms: _222  and  _224
REMARK   94  A    between atoms: _224  and  _225
REMARK   95  A    between atoms: _224  and  _227
REMARK   96  A    between atoms: _227  and  _228
REMARK   97  A    between atoms: _231  and  _233
REMARK   98  A    between atoms: _233  and  _234
REMARK   99  A    between atoms: _233  and  _236
REMARK  100  A    between atoms: _236  and  _237
REMARK  101  A    between atoms: _240  and  _242
REMARK  102  A    between atoms: _242  and  _243
REMARK  103  A    between atoms: _246  and  _248
REMARK  104  A    between atoms: _248  and  _249
REMARK  105  A    between atoms: _248  and  _251
REMARK  106  A    between atoms: _254  and  _256
REMARK  107  A    between atoms: _256  and  _257
REMARK  108  A    between atoms: _256  and  _259
REMARK  109  A    between atoms: _259  and  _260
REMARK  110  A    between atoms: _260  and  _261
REMARK  111  A    between atoms: _264  and  _266
REMARK  112  A    between atoms: _266  and  _267
REMARK  113  A    between atoms: _266  and  _269
REMARK  114  A    between atoms: _269  and  _270
REMARK  115  A    between atoms: _270  and  _271
REMARK  116  A    between atoms: _273  and  _275
REMARK  117  A    between atoms: _275  and  _276
REMARK  118  A    between atoms: _275  and  _278
REMARK  119  A    between atoms: _278  and  _279
REMARK  120  A    between atoms: _279  and  _280
REMARK  121  A    between atoms: _283  and  _285
REMARK  122  A    between atoms: _285  and  _286
REMARK  123  A    between atoms: _289  and  _291
REMARK  124  A    between atoms: _291  and  _292
REMARK  125  A    between atoms: _291  and  _294
REMARK  126  A    between atoms: _294  and  _295
REMARK  127  A    between atoms: _295  and  _296
REMARK  128  A    between atoms: _296  and  _297
REMARK  129  A    between atoms: _306  and  _308
REMARK  130  A    between atoms: _308  and  _309
REMARK  131  A    between atoms: _312  and  _314
REMARK  132  A    between atoms: _314  and  _315
REMARK  133  A    between atoms: _314  and  _317
REMARK  134  A    between atoms: _317  and  _318
REMARK  135  A    between atoms: _321  and  _323
REMARK  136  A    between atoms: _323  and  _324
REMARK  137  A    between atoms: _323  and  _326
REMARK  138  A    between atoms: _326  and  _327
REMARK  139  A    between atoms: _329  and  _331
REMARK  140  A    between atoms: _331  and  _332
REMARK  141  A    between atoms: _331  and  _334
REMARK  142  A    between atoms: _334  and  _335
REMARK  143  A    between atoms: _338  and  _340
REMARK  144  A    between atoms: _340  and  _341
REMARK  145  A    between atoms: _340  and  _343
REMARK  146  A    between atoms: _346  and  _348
REMARK  147  A    between atoms: _348  and  _349
REMARK  148  A    between atoms: _352  and  _354
REMARK  149  A    between atoms: _354  and  _355
REMARK  150  A    between atoms: _354  and  _357
REMARK  151  A    between atoms: _357  and  _358
REMARK  152  A    between atoms: _361  and  _363
REMARK  153  A    between atoms: _363  and  _364
REMARK  154  A    between atoms: _363  and  _366
REMARK  155  A    between atoms: _366  and  _367
REMARK  156  A    between atoms: _367  and  _368
REMARK  157  A    between atoms: _373  and  _375
REMARK  158  A    between atoms: _375  and  _376
REMARK  159  A    between atoms: _375  and  _378
REMARK  160  A    between atoms: _378  and  _379
REMARK  161  A    between atoms: _381  and  _383
REMARK  162  A    between atoms: _383  and  _384
REMARK  163  A    between atoms: _383  and  _386
REMARK  164  A    between atoms: _386  and  _387
REMARK  165  A    between atoms: _392  and  _394
REMARK  166  A    between atoms: _394  and  _395
REMARK  167  A    between atoms: _394  and  _397
REMARK  168  A    between atoms: _397  and  _398
REMARK  169  A    between atoms: _400  and  _402
REMARK  170  A    between atoms: _402  and  _403
REMARK  171  A    between atoms: _402  and  _405
REMARK  172  A    between atoms: _405  and  _406
REMARK  173  A    between atoms: _412  and  _414
REMARK  174  A    between atoms: _414  and  _415
REMARK  175  A    between atoms: _414  and  _417
REMARK  176  A    between atoms: _417  and  _418
REMARK  177  A    between atoms: _421  and  _423
REMARK  178  A    between atoms: _423  and  _424
REMARK  179  A    between atoms: _423  and  _426
REMARK  180  A    between atoms: _426  and  _427
REMARK  181  A    between atoms: _430  and  _432
REMARK  182  A    between atoms: _432  and  _433
REMARK  183  A    between atoms: _436  and  _438
REMARK  184  A    between atoms: _438  and  _439
REMARK  185  A    between atoms: _438  and  _441
REMARK  186  A    between atoms: _441  and  _442
REMARK  187  A    between atoms: _445  and  _447
REMARK  188  A    between atoms: _447  and  _448
REMARK  189  A    between atoms: _447  and  _450
REMARK  190  A    between atoms: _453  and  _455
REMARK  191  A    between atoms: _455  and  _456
REMARK  192  A    between atoms: _459  and  _461
REMARK  193  A    between atoms: _461  and  _462
REMARK  194  A    between atoms: _461  and  _464
REMARK  195  A    between atoms: _464  and  _465
REMARK  196  A    between atoms: _471  and  _473
REMARK  197  A    between atoms: _473  and  _474
REMARK  198  A    between atoms: _476  and  _478
REMARK  199  A    between atoms: _478  and  _479
REMARK  200  A    between atoms: _478  and  _481
REMARK  201  A    between atoms: _481  and  _482
REMARK  202  A    between atoms: _487  and  _488
REMARK  203  A    between atoms: _490  and  _492
REMARK  204  A    between atoms: _492  and  _493
REMARK  205  A    between atoms: _492  and  _495
REMARK  206  A    between atoms: _495  and  _496
REMARK  207  A    between atoms: _500  and  _501
REMARK  208  A    between atoms: _506  and  _508
REMARK  209  A    between atoms: _508  and  _509
REMARK                            x       y       z     vdW  Elec       q    Type
REMARK                         _______ _______ _______ _____ _____    ______ ____
ROOT
ATOM      1  CB  HIS A   1     -29.397 -13.024  11.447  0.00  0.00    +0.072 C 
ENDROOT
BRANCH   1   2
ATOM      2  CG  HIS A   1     -29.480 -11.936  10.425  0.00  0.00    +0.082 A 
ATOM      3  CD2 HIS A   1     -30.300 -10.853  10.343  0.00  0.00    +0.115 A 
ATOM      4  NE2 HIS A   1     -29.971 -10.180   9.193  0.00  0.00    -0.221 NA
ATOM      5  CE1 HIS A   1     -28.993 -10.825   8.584  0.00  0.00    +0.199 A 
ATOM      6  ND1 HIS A   1     -28.684 -11.895   9.305  0.00  0.00    -0.227 NA
ENDBRANCH   1   2
BRANCH   1   7
ATOM      7  CA  HIS A   1     -28.151 -12.961  12.343  0.00  0.00    +0.139 C 
BRANCH   7   8
ATOM      8  N   HIS A   1     -28.150 -11.801  13.244  0.00  0.00    -0.239 NA
ATOM      9  H   HIS A   1     -28.569 -10.896  12.950  0.00  0.00    +0.142 HD
ENDBRANCH   7   8
BRANCH   7  10
ATOM     10  C   HIS A   1     -26.891 -13.030  11.517  0.00  0.00    +0.224 C 
ATOM     11  O   HIS A   1     -26.655 -14.034  10.845  0.00  0.00    -0.287 OA
ENDBRANCH   7  10
ENDBRANCH   1   7
TORSDOF 4
REMARK  Name = ../refined-set-2016/4f3c/4f3c_pocket.pdb
REMARK  209 active torsions:
REMARK  status: ('A' for Active; 'I' for Inactive)
REMARK    1  A    between atoms: _1  and  _3
REMARK    2  A    between atoms: _3  and  _4
REMARK    3  A    between atoms: _6  and  _8
REMARK    4  A    between atoms: _8  and  _9
REMARK    5  A    between atoms: _12  and  _14
REMARK    6  A    between atoms: _14  and  _15
REMARK    7  A    between atoms: _14  and  _17
REMARK    8  A    between atoms: _17  and  _18
REMARK    9  A    between atoms: _18  and  _19
REMARK   10  A    between atoms: _21  and  _23
REMARK   11  A    between atoms: _23  and  _24
REMARK   12  A    between atoms: _23  and  _26
REMARK   13  A    between atoms: _26  and  _27
REMARK   14  A    between atoms: _27  and  _28
REMARK   15  A    between atoms: _31  and  _33
REMARK   16  A    between atoms: _33  and  _34
REMARK   17  A    between atoms: _33  and  _36
REMARK   18  A    between atoms: _36  and  _37
REMARK   19  A    between atoms: _37  and  _38
REMARK   20  A    between atoms: _41  and  _43
REMARK   21  A    between atoms: _43  and  _44
REMARK   22  A    between atoms: _43  and  _46
REMARK   23  A    between atoms: _46  and  _47
REMARK   24  A    between atoms: _49  and  _51
REMARK   25  A    between atoms: _51  and  _52
REMARK   26  A    between atoms: _54  and  _56
REMARK   27  A    between atoms: _56  and  _57
REMARK   28  A    between atoms: _56  and  _59
REMARK   29  A    between atoms: _59  and  _60
REMARK   30  A    between atoms: _63  and  _65
REMARK   31  A    between atoms: _65  and  _66
REMARK   32  A    between atoms: _68  and  _70
REMARK   33  A    between atoms: _70  and  _71
REMARK   34  A    between atoms: _74  and  _76
REMARK   35  A    between atoms: _76  and  _77
REMARK   36  A    between atoms: _80  and  _82
REMARK   37  A    between atoms: _82  and  _83
REMARK   38  A    between atoms: _82  and  _85
REMARK   39  A    between atoms: _85  and  _86
REMARK   40  A    between atoms: _91  and  _93
REMARK   41  A    between atoms: _93  and  _94
REMARK   42  A    between atoms: _93  and  _96
REMARK   43  A    between atoms: _96  and  _97
REMARK   44  A    between atoms: _100  and  _102
REMARK   45  A    between atoms: _102  and  _103
REMARK   46  A    between atoms: _105  and  _107
REMARK   47  A    between atoms: _107  and  _108
REMARK   48  A    between atoms: _107  and  _110
REMARK   49  A    between atoms: _110  and  _111
REMARK   50  A    between atoms: _113  and  _115
REMARK   51  A    between atoms: _115  and  _116
REMARK   52  A    between atoms: _119  and  _121
REMARK   53  A    between atoms: _121  and  _122
REMARK   54  A    between atoms: _124  and  _126
REMARK   55  A    between atoms: _126  and  _127
REMARK   56  A    between atoms: _129  and  _131
REMARK   57  A    between atoms: _131  and  _132
REMARK   58  A    between atoms: _131  and  _134
REMARK   59  A    between atoms: _134  and  _135
REMARK   60  A    between atoms: _138  and  _140
REMARK   61  A    between atoms: _140  and  _141
REMARK   62  A    between atoms: _140  and  _143
REMARK   63  A    between atoms: _143  and  _144
REMARK   64  A    between atoms: _149  and  _151
REMARK   65  A    between atoms: _151  and  _152
REMARK   66  A    between atoms: _151  and  _154
REMARK   67  A    between atoms: _157  and  _159
REMARK   68  A    between atoms: _159  and  _160
REMARK   69  A    between atoms: _159  and  _162
REMARK   70  A    between atoms: _162  and  _163
REMARK   71  A    between atoms: _165  and  _167
REMARK   72  A    between atoms: _167  and  _168
REMARK   73  A    between atoms: _170  and  _172
REMARK   74  A    between atoms: _172  and  _173
REMARK   75  A    between atoms: _172  and  _175
REMARK   76  A    between atoms: _175  and  _176
REMARK   77  A    between atoms: _179  and  _181
REMARK   78  A    between atoms: _181  and  _182
REMARK   79  A    between atoms: _185  and  _187
REMARK   80  A    between atoms: _187  and  _188
REMARK   81  A    between atoms: _187  and  _190
REMARK   82  A    between atoms: _190  and  _191
REMARK   83  A    between atoms: _197  and  _199
REMARK   84  A    between atoms: _199  and  _200
REMARK   85  A    between atoms: _199  and  _202
REMARK   86  A    between atoms: _202  and  _203
REMARK   87  A    between atoms: _206  and  _208
REMARK   88  A    between atoms: _208  and  _209
REMARK   89  A    between atoms: _208  and  _211
REMARK   90  A    between atoms: _211  and  _212
REMARK   91  A    between atoms: _217  and  _219
REMARK   92  A    between atoms: _219  and  _220
REMARK   93  A    between atoms: _222  and  _224
REMARK   94  A    between atoms: _224  and  _225
REMARK   95  A    between atoms: _224  and  _227
REMARK   96  A    between atoms: _227  and  _228
REMARK   97  A    between atoms: _231  and  _233
REMARK   98  A    between atoms: _233  and  _234
REMARK   99  A    between atoms: _233  and  _236
REMARK  100  A    between atoms: _236  and  _237
REMARK  101  A    between atoms: _240  and  _242
REMARK  102  A    between atoms: _242  and  _243
REMARK  103  A    between atoms: _246  and  _248
REMARK  104  A    between atoms: _248  and  _249
REMARK  105  A    between atoms: _248  and  _251
REMARK  106  A    between atoms: _254  and  _256
REMARK  107  A    between atoms: _256  and  _257
REMARK  108  A    between atoms: _256  and  _259
REMARK  109  A    between atoms: _259  and  _260
REMARK  110  A    between atoms: _260  and  _261
REMARK  111  A    between atoms: _264  and  _266
REMARK  112  A    between atoms: _266  and  _267
REMARK  113  A    between atoms: _266  and  _269
REMARK  114  A    between atoms: _269  and  _270
REMARK  115  A    between atoms: _270  and  _271
REMARK  116  A    between atoms: _273  and  _275
REMARK  117  A    between atoms: _275  and  _276
REMARK  118  A    between atoms: _275  and  _278
REMARK  119  A    between atoms: _278  and  _279
REMARK  120  A    between atoms: _279  and  _280
REMARK  121  A    between atoms: _283  and  _285
REMARK  122  A    between atoms: _285  and  _286
REMARK  123  A    between atoms: _289  and  _291
REMARK  124  A    between atoms: _291  and  _292
REMARK  125  A    between atoms: _291  and  _294
REMARK  126  A    between atoms: _294  and  _295
REMARK  127  A    between atoms: _295  and  _296
REMARK  128  A    between atoms: _296  and  _297
REMARK  129  A    between atoms: _306  and  _308
REMARK  130  A    between atoms: _308  and  _309
REMARK  131  A    between atoms: _312  and  _314
REMARK  132  A    between atoms: _314  and  _315
REMARK  133  A    between atoms: _314  and  _317
REMARK  134  A    between atoms: _317  and  _318
REMARK  135  A    between atoms: _321  and  _323
REMARK  136  A    between atoms: _323  and  _324
REMARK  137  A    between atoms: _323  and  _326
REMARK  138  A    between atoms: _326  and  _327
REMARK  139  A    between atoms: _329  and  _331
REMARK  140  A    between atoms: _331  and  _332
REMARK  141  A    between atoms: _331  and  _334
REMARK  142  A    between atoms: _334  and  _335
REMARK  143  A    between atoms: _338  and  _340
REMARK  144  A    between atoms: _340  and  _341
REMARK  145  A    between atoms: _340  and  _343
REMARK  146  A    between atoms: _346  and  _348
REMARK  147  A    between atoms: _348  and  _349
REMARK  148  A    between atoms: _352  and  _354
REMARK  149  A    between atoms: _354  and  _355
REMARK  150  A    between atoms: _354  and  _357
REMARK  151  A    between atoms: _357  and  _358
REMARK  152  A    between atoms: _361  and  _363
REMARK  153  A    between atoms: _363  and  _364
REMARK  154  A    between atoms: _363  and  _366
REMARK  155  A    between atoms: _366  and  _367
REMARK  156  A    between atoms: _367  and  _368
REMARK  157  A    between atoms: _373  and  _375
REMARK  158  A    between atoms: _375  and  _376
REMARK  159  A    between atoms: _375  and  _378
REMARK  160  A    between atoms: _378  and  _379
REMARK  161  A    between atoms: _381  and  _383
REMARK  162  A    between atoms: _383  and  _384
REMARK  163  A    between atoms: _383  and  _386
REMARK  164  A    between atoms: _386  and  _387
REMARK  165  A    between atoms: _392  and  _394
REMARK  166  A    between atoms: _394  and  _395
REMARK  167  A    between atoms: _394  and  _397
REMARK  168  A    between atoms: _397  and  _398
REMARK  169  A    between atoms: _400  and  _402
REMARK  170  A    between atoms: _402  and  _403
REMARK  171  A    between atoms: _402  and  _405
REMARK  172  A    between atoms: _405  and  _406
REMARK  173  A    between atoms: _412  and  _414
REMARK  174  A    between atoms: _414  and  _415
REMARK  175  A    between atoms: _414  and  _417
REMARK  176  A    between atoms: _417  and  _418
REMARK  177  A    between atoms: _421  and  _423
REMARK  178  A    between atoms: _423  and  _424
REMARK  179  A    between atoms: _423  and  _426
REMARK  180  A    between atoms: _426  and  _427
REMARK  181  A    between atoms: _430  and  _432
REMARK  182  A    between atoms: _432  and  _433
REMARK  183  A    between atoms: _436  and  _438
REMARK  184  A    between atoms: _438  and  _439
REMARK  185  A    between atoms: _438  and  _441
REMARK  186  A    between atoms: _441  and  _442
REMARK  187  A    between atoms: _445  and  _447
REMARK  188  A    between atoms: _447  and  _448
REMARK  189  A    between atoms: _447  and  _450
REMARK  190  A    between atoms: _453  and  _455
REMARK  191  A    between atoms: _455  and  _456
REMARK  192  A    between atoms: _459  and  _461
REMARK  193  A    between atoms: _461  and  _462
REMARK  194  A    between atoms: _461  and  _464
REMARK  195  A    between atoms: _464  and  _465
REMARK  196  A    between atoms: _471  and  _473
REMARK  197  A    between atoms: _473  and  _474
REMARK  198  A    between atoms: _476  and  _478
REMARK  199  A    between atoms: _478  and  _479
REMARK  200  A    between atoms: _478  and  _481
REMARK  201  A    between atoms: _481  and  _482
REMARK  202  A    between atoms: _487  and  _488
REMARK  203  A    between atoms: _490  and  _492
REMARK  204  A    between atoms: _492  and  _493
REMARK  205  A    between atoms: _492  and  _495
REMARK  206  A    between atoms: _495  and  _496
REMARK  207  A    between atoms: _500  and  _501
REMARK  208  A    between atoms: _506  and  _508
REMARK  209  A    between atoms: _508  and  _509
REMARK                            x       y       z     vdW  Elec       q    Type
REMARK                         _______ _______ _______ _____ _____    ______ ____
ROOT
ATOM      1  C   ALA A   5     -30.271  -6.389   5.115  0.00  0.00    +0.241 C 
ATOM      2  O   ALA A   5     -31.010  -6.797   6.004  0.00  0.00    -0.273 OA
ATOM      3  N   PHE A   6     -30.728  -5.867   3.976  0.00  0.00    -0.297 N 
ATOM      4  H   PHE A   6     -30.065  -5.442   3.297  0.00  0.00    +0.150 HD
ENDROOT
BRANCH   1   5
ATOM      5  CA  ALA A   5     -28.782  -6.528   5.245  0.00  0.00    +0.149 C 
ATOM      6  CB  ALA A   5     -28.388  -7.972   4.941  0.00  0.00    +0.031 C 
BRANCH   5   8
ATOM      7  C   ASP A   4     -27.260  -5.327   6.718  0.00  0.00    +0.241 C 
ATOM      8  N   ALA A   5     -28.298  -6.147   6.570  0.00  0.00    -0.297 N 
ATOM      9  H   ALA A   5     -28.774  -6.524   7.414  0.00  0.00    +0.150 HD
ATOM     10  O   ASP A   4     -26.689  -4.819   5.768  0.00  0.00    -0.273 OA
BRANCH   7  11
ATOM     11  CA  ASP A   4     -26.843  -4.988   8.143  0.00  0.00    +0.160 C 
BRANCH  11  14
ATOM     12  C   GLY A   3     -28.060  -6.326   9.722  0.00  0.00    +0.243 C 
ATOM     13  O   GLY A   3     -29.001  -5.532   9.672  0.00  0.00    -0.273 OA
ATOM     14  N   ASP A   4     -26.959  -6.138   9.028  0.00  0.00    -0.296 N 
ATOM     15  H   ASP A   4     -26.171  -6.811   9.111  0.00  0.00    +0.150 HD
BRANCH  12  16
ATOM     16  CA  GLY A   3     -28.175  -7.613  10.518  0.00  0.00    +0.176 C 
BRANCH  16  19
ATOM     17  C   SER A   2     -29.594  -8.300  12.385  0.00  0.00    +0.243 C 
ATOM     18  O   SER A   2     -28.758  -9.085  12.806  0.00  0.00    -0.273 OA
ATOM     19  N   GLY A   3     -29.411  -7.566  11.292  0.00  0.00    -0.295 N 
ATOM     20  H   GLY A   3     -30.176  -6.936  10.977  0.00  0.00    +0.150 HD
BRANCH  17  21
ATOM     21  CA  SER A   2     -30.873  -8.023  13.130  0.00  0.00    +0.178 C 
BRANCH  21  23
ATOM     22  C   VAL A   1     -32.605  -9.665  13.601  0.00  0.00    +0.238 C 
ATOM     23  N   SER A   2     -31.382  -9.189  13.809  0.00  0.00    -0.295 N 
ATOM     24  H   SER A   2     -30.766  -9.678  14.490  0.00  0.00    +0.150 HD
ATOM     25  O   VAL A   1     -33.393  -9.189  12.784  0.00  0.00    -0.274 OA
BRANCH  22  26
ATOM     26  CA  VAL A   1     -32.979 -10.897  14.414  0.00  0.00    +0.145 C 
BRANCH  26  27
ATOM     27  CB  VAL A   1     -32.579 -12.186  13.646  0.00  0.00    +0.025 C 
ATOM     28  CG2 VAL A   1     -32.796 -13.399  14.535  0.00  0.00    +0.002 C 
ATOM     29  CG1 VAL A   1     -33.374 -12.362  12.359  0.00  0.00    +0.002 C 
ENDBRANCH  26  27
BRANCH  26  30
ATOM     30  N   VAL A   1     -34.376 -10.901  14.767  0.00  0.00    -0.238 NA
ATOM     31  H   VAL A   1     -35.090 -11.045  14.025  0.00  0.00    +0.142 HD
ENDBRANCH  26  30
ENDBRANCH  22  26
ENDBRANCH  21  23
BRANCH  21  32
ATOM     32  CB  SER A   2     -30.594  -6.882  14.103  0.00  0.00    +0.166 C 
BRANCH  32  33
ATOM     33  OG  SER A   2     -31.679  -6.585  14.939  0.00  0.00    -0.380 OA
ATOM     34  H   SER A   2     -32.457  -6.322  14.387  0.00  0.00    +0.211 HD
ENDBRANCH  32  33
ENDBRANCH  21  32
ENDBRANCH  17  21
ENDBRANCH  16  19
ENDBRANCH  12  16
ENDBRANCH  11  14
BRANCH  11  35
ATOM     35  CB  ASP A   4     -25.430  -4.406   8.190  0.00  0.00    +0.143 C 
BRANCH  35  36
ATOM     36  CG  ASP A   4     -25.267  -3.393   9.302  0.00  0.00    +0.367 C 
ATOM     37  OD2 ASP A   4     -26.304  -2.936   9.797  0.00  0.00    -0.246 OA
ATOM     38  OD1 ASP A   4     -24.124  -3.048   9.679  0.00  0.00    -0.246 OA
ENDBRANCH  35  36
ENDBRANCH  11  35
ENDBRANCH   7  11
ENDBRANCH   5   8
ENDBRANCH   1   5
BRANCH   3  39
ATOM     39  CA  PHE A   6     -32.150  -5.891   3.681  0.00  0.00    +0.153 C 
BRANCH  39  40
ATOM     40  C   PHE A   6     -32.502  -7.209   3.027  0.00  0.00    +0.241 C 
ATOM     41  N   ILE A   7     -33.402  -7.961   3.645  0.00  0.00    -0.297 N 
ATOM     42  H   ILE A   7     -33.959  -7.559   4.426  0.00  0.00    +0.150 HD
ATOM     43  O   PHE A   6     -31.985  -7.533   1.977  0.00  0.00    -0.273 OA
BRANCH  41  44
ATOM     44  CA  ILE A   7     -33.617  -9.329   3.246  0.00  0.00    +0.149 C 
BRANCH  44  45
ATOM     45  C   ILE A   7     -34.705  -9.422   2.196  0.00  0.00    +0.241 C 
ATOM     46  O   ILE A   7     -35.838  -8.965   2.395  0.00  0.00    -0.273 OA
ATOM     47  N   ASN A   8     -34.360 -10.044   1.070  0.00  0.00    -0.297 N 
ATOM     48  H   ASN A   8     -33.367 -10.308   0.911  0.00  0.00    +0.150 HD
BRANCH  47  49
ATOM     49  CA  ASN A   8     -35.363 -10.360   0.055  0.00  0.00    +0.158 C 
BRANCH  49  50
ATOM     50  C   ASN A   8     -35.230 -11.795  -0.493  0.00  0.00    +0.241 C 
ATOM     51  N   GLY A   9     -35.658 -12.764   0.298  0.00  0.00    -0.296 N 
ATOM     52  H   GLY A   9     -36.030 -12.535   1.242  0.00  0.00    +0.150 HD
ATOM     53  O   ASN A   8     -34.784 -12.006  -1.610  0.00  0.00    -0.273 OA
BRANCH  51  54
ATOM     54  CA  GLY A   9     -35.612 -14.136  -0.141  0.00  0.00    +0.163 C 
BRANCH  54  55
ATOM     55  C   GLY A   9     -34.227 -14.642  -0.510  0.00  0.00    +0.229 C 
ATOM     56  O   GLY A   9     -33.172 -14.116  -0.086  0.00  0.00    -0.286 OA
ENDBRANCH  54  55
ENDBRANCH  51  54
ENDBRANCH  49  50
BRANCH  49  57
ATOM     57  CB  ASN A   8     -35.308  -9.357  -1.073  0.00  0.00    +0.114 C 
BRANCH  57  58
ATOM     58  CG  ASN A   8     -36.463  -9.530  -2.062  0.00  0.00    +0.222 C 
ATOM     59  OD1 ASN A   8     -37.557 -10.085  -1.738  0.00  0.00    -0.275 OA
ATOM     60  ND2 ASN A   8     -36.221  -9.085  -3.273  0.00  0.00    -0.329 N 
ATOM     61 HD21 ASN A   8     -35.308  -8.637  -3.490  0.00  0.00    +0.145 HD
ATOM     62 HD22 ASN A   8     -36.942  -9.180  -4.016  0.00  0.00    +0.145 HD
ENDBRANCH  57  58
ENDBRANCH  49  57
ENDBRANCH  47  49
ENDBRANCH  44  45
BRANCH  44  63
ATOM     63  CB  ILE A   7     -33.970 -10.223   4.445  0.00  0.00    +0.027 C 
ATOM     64  CG2 ILE A   7     -34.138 -11.693   4.010  0.00  0.00    +0.002 C 
BRANCH  63  65
ATOM     65  CG1 ILE A   7     -32.903 -10.101   5.521  0.00  0.00    +0.002 C 
ATOM     66  CD1 ILE A   7     -31.489 -10.380   5.026  0.00  0.00    +0.000 C 
ENDBRANCH  63  65
ENDBRANCH  44  63
ENDBRANCH  41  44
ENDBRANCH  39  40
BRANCH  39  67
ATOM     67  CB  PHE A   6     -32.596  -4.734   2.796  0.00  0.00    +0.055 C 
BRANCH  67  68
ATOM     68  CG  PHE A   6     -34.086  -4.685   2.595  0.00  0.00    -0.020 A 
ATOM     69  CD2 PHE A   6     -34.917  -4.134   3.564  0.00  0.00    -0.004 A 
ATOM     70  CE2 PHE A   6     -36.282  -4.080   3.390  0.00  0.00    -0.000 A 
ATOM     71  CZ  PHE A   6     -36.866  -4.642   2.262  0.00  0.00    -0.000 A 
ATOM     72  CE1 PHE A   6     -36.065  -5.227   1.303  0.00  0.00    -0.000 A 
ATOM     73  CD1 PHE A   6     -34.673  -5.260   1.469  0.00  0.00    -0.004 A 
ENDBRANCH  67  68
ENDBRANCH  39  67
ENDBRANCH   3  39
TORSDOF 29
REMARK  Name = ../refined-set-2016/4f3c/4f3c_pocket.pdb
REMARK  209 active torsions:
REMARK  status: ('A' for Active; 'I' for Inactive)
REMARK    1  A    between atoms: _1  and  _3
REMARK    2  A    between atoms: _3  and  _4
REMARK    3  A    between atoms: _6  and  _8
REMARK    4  A    between atoms: _8  and  _9
REMARK    5  A    between atoms: _12  and  _14
REMARK    6  A    between atoms: _14  and  _15
REMARK    7  A    between atoms: _14  and  _17
REMARK    8  A    between atoms: _17  and  _18
REMARK    9  A    between atoms: _18  and  _19
REMARK   10  A    between atoms: _21  and  _23
REMARK   11  A    between atoms: _23  and  _24
REMARK   12  A    between atoms: _23  and  _26
REMARK   13  A    between atoms: _26  and  _27
REMARK   14  A    between atoms: _27  and  _28
REMARK   15  A    between atoms: _31  and  _33
REMARK   16  A    between atoms: _33  and  _34
REMARK   17  A    between atoms: _33  and  _36
REMARK   18  A    between atoms: _36  and  _37
REMARK   19  A    between atoms: _37  and  _38
REMARK   20  A    between atoms: _41  and  _43
REMARK   21  A    between atoms: _43  and  _44
REMARK   22  A    between atoms: _43  and  _46
REMARK   23  A    between atoms: _46  and  _47
REMARK   24  A    between atoms: _49  and  _51
REMARK   25  A    between atoms: _51  and  _52
REMARK   26  A    between atoms: _54  and  _56
REMARK   27  A    between atoms: _56  and  _57
REMARK   28  A    between atoms: _56  and  _59
REMARK   29  A    between atoms: _59  and  _60
REMARK   30  A    between atoms: _63  and  _65
REMARK   31  A    between atoms: _65  and  _66
REMARK   32  A    between atoms: _68  and  _70
REMARK   33  A    between atoms: _70  and  _71
REMARK   34  A    between atoms: _74  and  _76
REMARK   35  A    between atoms: _76  and  _77
REMARK   36  A    between atoms: _80  and  _82
REMARK   37  A    between atoms: _82  and  _83
REMARK   38  A    between atoms: _82  and  _85
REMARK   39  A    between atoms: _85  and  _86
REMARK   40  A    between atoms: _91  and  _93
REMARK   41  A    between atoms: _93  and  _94
REMARK   42  A    between atoms: _93  and  _96
REMARK   43  A    between atoms: _96  and  _97
REMARK   44  A    between atoms: _100  and  _102
REMARK   45  A    between atoms: _102  and  _103
REMARK   46  A    between atoms: _105  and  _107
REMARK   47  A    between atoms: _107  and  _108
REMARK   48  A    between atoms: _107  and  _110
REMARK   49  A    between atoms: _110  and  _111
REMARK   50  A    between atoms: _113  and  _115
REMARK   51  A    between atoms: _115  and  _116
REMARK   52  A    between atoms: _119  and  _121
REMARK   53  A    between atoms: _121  and  _122
REMARK   54  A    between atoms: _124  and  _126
REMARK   55  A    between atoms: _126  and  _127
REMARK   56  A    between atoms: _129  and  _131
REMARK   57  A    between atoms: _131  and  _132
REMARK   58  A    between atoms: _131  and  _134
REMARK   59  A    between atoms: _134  and  _135
REMARK   60  A    between atoms: _138  and  _140
REMARK   61  A    between atoms: _140  and  _141
REMARK   62  A    between atoms: _140  and  _143
REMARK   63  A    between atoms: _143  and  _144
REMARK   64  A    between atoms: _149  and  _151
REMARK   65  A    between atoms: _151  and  _152
REMARK   66  A    between atoms: _151  and  _154
REMARK   67  A    between atoms: _157  and  _159
REMARK   68  A    between atoms: _159  and  _160
REMARK   69  A    between atoms: _159  and  _162
REMARK   70  A    between atoms: _162  and  _163
REMARK   71  A    between atoms: _165  and  _167
REMARK   72  A    between atoms: _167  and  _168
REMARK   73  A    between atoms: _170  and  _172
REMARK   74  A    between atoms: _172  and  _173
REMARK   75  A    between atoms: _172  and  _175
REMARK   76  A    between atoms: _175  and  _176
REMARK   77  A    between atoms: _179  and  _181
REMARK   78  A    between atoms: _181  and  _182
REMARK   79  A    between atoms: _185  and  _187
REMARK   80  A    between atoms: _187  and  _188
REMARK   81  A    between atoms: _187  and  _190
REMARK   82  A    between atoms: _190  and  _191
REMARK   83  A    between atoms: _197  and  _199
REMARK   84  A    between atoms: _199  and  _200
REMARK   85  A    between atoms: _199  and  _202
REMARK   86  A    between atoms: _202  and  _203
REMARK   87  A    between atoms: _206  and  _208
REMARK   88  A    between atoms: _208  and  _209
REMARK   89  A    between atoms: _208  and  _211
REMARK   90  A    between atoms: _211  and  _212
REMARK   91  A    between atoms: _217  and  _219
REMARK   92  A    between atoms: _219  and  _220
REMARK   93  A    between atoms: _222  and  _224
REMARK   94  A    between atoms: _224  and  _225
REMARK   95  A    between atoms: _224  and  _227
REMARK   96  A    between atoms: _227  and  _228
REMARK   97  A    between atoms: _231  and  _233
REMARK   98  A    between atoms: _233  and  _234
REMARK   99  A    between atoms: _233  and  _236
REMARK  100  A    between atoms: _236  and  _237
REMARK  101  A    between atoms: _240  and  _242
REMARK  102  A    between atoms: _242  and  _243
REMARK  103  A    between atoms: _246  and  _248
REMARK  104  A    between atoms: _248  and  _249
REMARK  105  A    between atoms: _248  and  _251
REMARK  106  A    between atoms: _254  and  _256
REMARK  107  A    between atoms: _256  and  _257
REMARK  108  A    between atoms: _256  and  _259
REMARK  109  A    between atoms: _259  and  _260
REMARK  110  A    between atoms: _260  and  _261
REMARK  111  A    between atoms: _264  and  _266
REMARK  112  A    between atoms: _266  and  _267
REMARK  113  A    between atoms: _266  and  _269
REMARK  114  A    between atoms: _269  and  _270
REMARK  115  A    between atoms: _270  and  _271
REMARK  116  A    between atoms: _273  and  _275
REMARK  117  A    between atoms: _275  and  _276
REMARK  118  A    between atoms: _275  and  _278
REMARK  119  A    between atoms: _278  and  _279
REMARK  120  A    between atoms: _279  and  _280
REMARK  121  A    between atoms: _283  and  _285
REMARK  122  A    between atoms: _285  and  _286
REMARK  123  A    between atoms: _289  and  _291
REMARK  124  A    between atoms: _291  and  _292
REMARK  125  A    between atoms: _291  and  _294
REMARK  126  A    between atoms: _294  and  _295
REMARK  127  A    between atoms: _295  and  _296
REMARK  128  A    between atoms: _296  and  _297
REMARK  129  A    between atoms: _306  and  _308
REMARK  130  A    between atoms: _308  and  _309
REMARK  131  A    between atoms: _312  and  _314
REMARK  132  A    between atoms: _314  and  _315
REMARK  133  A    between atoms: _314  and  _317
REMARK  134  A    between atoms: _317  and  _318
REMARK  135  A    between atoms: _321  and  _323
REMARK  136  A    between atoms: _323  and  _324
REMARK  137  A    between atoms: _323  and  _326
REMARK  138  A    between atoms: _326  and  _327
REMARK  139  A    between atoms: _329  and  _331
REMARK  140  A    between atoms: _331  and  _332
REMARK  141  A    between atoms: _331  and  _334
REMARK  142  A    between atoms: _334  and  _335
REMARK  143  A    between atoms: _338  and  _340
REMARK  144  A    between atoms: _340  and  _341
REMARK  145  A    between atoms: _340  and  _343
REMARK  146  A    between atoms: _346  and  _348
REMARK  147  A    between atoms: _348  and  _349
REMARK  148  A    between atoms: _352  and  _354
REMARK  149  A    between atoms: _354  and  _355
REMARK  150  A    between atoms: _354  and  _357
REMARK  151  A    between atoms: _357  and  _358
REMARK  152  A    between atoms: _361  and  _363
REMARK  153  A    between atoms: _363  and  _364
REMARK  154  A    between atoms: _363  and  _366
REMARK  155  A    between atoms: _366  and  _367
REMARK  156  A    between atoms: _367  and  _368
REMARK  157  A    between atoms: _373  and  _375
REMARK  158  A    between atoms: _375  and  _376
REMARK  159  A    between atoms: _375  and  _378
REMARK  160  A    between atoms: _378  and  _379
REMARK  161  A    between atoms: _381  and  _383
REMARK  162  A    between atoms: _383  and  _384
REMARK  163  A    between atoms: _383  and  _386
REMARK  164  A    between atoms: _386  and  _387
REMARK  165  A    between atoms: _392  and  _394
REMARK  166  A    between atoms: _394  and  _395
REMARK  167  A    between atoms: _394  and  _397
REMARK  168  A    between atoms: _397  and  _398
REMARK  169  A    between atoms: _400  and  _402
REMARK  170  A    between atoms: _402  and  _403
REMARK  171  A    between atoms: _402  and  _405
REMARK  172  A    between atoms: _405  and  _406
REMARK  173  A    between atoms: _412  and  _414
REMARK  174  A    between atoms: _414  and  _415
REMARK  175  A    between atoms: _414  and  _417
REMARK  176  A    between atoms: _417  and  _418
REMARK  177  A    between atoms: _421  and  _423
REMARK  178  A    between atoms: _423  and  _424
REMARK  179  A    between atoms: _423  and  _426
REMARK  180  A    between atoms: _426  and  _427
REMARK  181  A    between atoms: _430  and  _432
REMARK  182  A    between atoms: _432  and  _433
REMARK  183  A    between atoms: _436  and  _438
REMARK  184  A    between atoms: _438  and  _439
REMARK  185  A    between atoms: _438  and  _441
REMARK  186  A    between atoms: _441  and  _442
REMARK  187  A    between atoms: _445  and  _447
REMARK  188  A    between atoms: _447  and  _448
REMARK  189  A    between atoms: _447  and  _450
REMARK  190  A    between atoms: _453  and  _455
REMARK  191  A    between atoms: _455  and  _456
REMARK  192  A    between atoms: _459  and  _461
REMARK  193  A    between atoms: _461  and  _462
REMARK  194  A    between atoms: _461  and  _464
REMARK  195  A    between atoms: _464  and  _465
REMARK  196  A    between atoms: _471  and  _473
REMARK  197  A    between atoms: _473  and  _474
REMARK  198  A    between atoms: _476  and  _478
REMARK  199  A    between atoms: _478  and  _479
REMARK  200  A    between atoms: _478  and  _481
REMARK  201  A    between atoms: _481  and  _482
REMARK  202  A    between atoms: _487  and  _488
REMARK  203  A    between atoms: _490  and  _492
REMARK  204  A    between atoms: _492  and  _493
REMARK  205  A    between atoms: _492  and  _495
REMARK  206  A    between atoms: _495  and  _496
REMARK  207  A    between atoms: _500  and  _501
REMARK  208  A    between atoms: _506  and  _508
REMARK  209  A    between atoms: _508  and  _509
REMARK                            x       y       z     vdW  Elec       q    Type
REMARK                         _______ _______ _______ _____ _____    ______ ____
ROOT
ATOM      1  CA  LEU A   1     -33.464 -15.581   3.834  0.00  0.00    +0.133 C 
ENDROOT
BRANCH   1   2
ATOM      2  N   LEU A   1     -32.355 -15.158   2.975  0.00  0.00    -0.239 NA
ATOM      3  H   LEU A   1     -32.525 -15.027   1.957  0.00  0.00    +0.142 HD
ENDBRANCH   1   2
BRANCH   1   4
ATOM      4  C   LEU A   1     -33.266 -17.043   4.300  0.00  0.00    +0.224 C 
ATOM      5  O   LEU A   1     -33.505 -17.377   5.438  0.00  0.00    -0.287 OA
ENDBRANCH   1   4
BRANCH   1   6
ATOM      6  CB  LEU A   1     -34.798 -15.408   3.103  0.00  0.00    +0.025 C 
BRANCH   6   7
ATOM      7  CG  LEU A   1     -36.069 -15.847   3.806  0.00  0.00    +0.002 C 
ATOM      8  CD2 LEU A   1     -36.341 -14.986   5.008  0.00  0.00    +0.000 C 
ATOM      9  CD1 LEU A   1     -37.266 -15.851   2.876  0.00  0.00    +0.000 C 
ENDBRANCH   6   7
ENDBRANCH   1   6
TORSDOF 4
REMARK  Name = ../refined-set-2016/4f3c/4f3c_pocket.pdb
REMARK  209 active torsions:
REMARK  status: ('A' for Active; 'I' for Inactive)
REMARK    1  A    between atoms: _1  and  _3
REMARK    2  A    between atoms: _3  and  _4
REMARK    3  A    between atoms: _6  and  _8
REMARK    4  A    between atoms: _8  and  _9
REMARK    5  A    between atoms: _12  and  _14
REMARK    6  A    between atoms: _14  and  _15
REMARK    7  A    between atoms: _14  and  _17
REMARK    8  A    between atoms: _17  and  _18
REMARK    9  A    between atoms: _18  and  _19
REMARK   10  A    between atoms: _21  and  _23
REMARK   11  A    between atoms: _23  and  _24
REMARK   12  A    between atoms: _23  and  _26
REMARK   13  A    between atoms: _26  and  _27
REMARK   14  A    between atoms: _27  and  _28
REMARK   15  A    between atoms: _31  and  _33
REMARK   16  A    between atoms: _33  and  _34
REMARK   17  A    between atoms: _33  and  _36
REMARK   18  A    between atoms: _36  and  _37
REMARK   19  A    between atoms: _37  and  _38
REMARK   20  A    between atoms: _41  and  _43
REMARK   21  A    between atoms: _43  and  _44
REMARK   22  A    between atoms: _43  and  _46
REMARK   23  A    between atoms: _46  and  _47
REMARK   24  A    between atoms: _49  and  _51
REMARK   25  A    between atoms: _51  and  _52
REMARK   26  A    between atoms: _54  and  _56
REMARK   27  A    between atoms: _56  and  _57
REMARK   28  A    between atoms: _56  and  _59
REMARK   29  A    between atoms: _59  and  _60
REMARK   30  A    between atoms: _63  and  _65
REMARK   31  A    between atoms: _65  and  _66
REMARK   32  A    between atoms: _68  and  _70
REMARK   33  A    between atoms: _70  and  _71
REMARK   34  A    between atoms: _74  and  _76
REMARK   35  A    between atoms: _76  and  _77
REMARK   36  A    between atoms: _80  and  _82
REMARK   37  A    between atoms: _82  and  _83
REMARK   38  A    between atoms: _82  and  _85
REMARK   39  A    between atoms: _85  and  _86
REMARK   40  A    between atoms: _91  and  _93
REMARK   41  A    between atoms: _93  and  _94
REMARK   42  A    between atoms: _93  and  _96
REMARK   43  A    between atoms: _96  and  _97
REMARK   44  A    between atoms: _100  and  _102
REMARK   45  A    between atoms: _102  and  _103
REMARK   46  A    between atoms: _105  and  _107
REMARK   47  A    between atoms: _107  and  _108
REMARK   48  A    between atoms: _107  and  _110
REMARK   49  A    between atoms: _110  and  _111
REMARK   50  A    between atoms: _113  and  _115
REMARK   51  A    between atoms: _115  and  _116
REMARK   52  A    between atoms: _119  and  _121
REMARK   53  A    between atoms: _121  and  _122
REMARK   54  A    between atoms: _124  and  _126
REMARK   55  A    between atoms: _126  and  _127
REMARK   56  A    between atoms: _129  and  _131
REMARK   57  A    between atoms: _131  and  _132
REMARK   58  A    between atoms: _131  and  _134
REMARK   59  A    between atoms: _134  and  _135
REMARK   60  A    between atoms: _138  and  _140
REMARK   61  A    between atoms: _140  and  _141
REMARK   62  A    between atoms: _140  and  _143
REMARK   63  A    between atoms: _143  and  _144
REMARK   64  A    between atoms: _149  and  _151
REMARK   65  A    between atoms: _151  and  _152
REMARK   66  A    between atoms: _151  and  _154
REMARK   67  A    between atoms: _157  and  _159
REMARK   68  A    between atoms: _159  and  _160
REMARK   69  A    between atoms: _159  and  _162
REMARK   70  A    between atoms: _162  and  _163
REMARK   71  A    between atoms: _165  and  _167
REMARK   72  A    between atoms: _167  and  _168
REMARK   73  A    between atoms: _170  and  _172
REMARK   74  A    between atoms: _172  and  _173
REMARK   75  A    between atoms: _172  and  _175
REMARK   76  A    between atoms: _175  and  _176
REMARK   77  A    between atoms: _179  and  _181
REMARK   78  A    between atoms: _181  and  _182
REMARK   79  A    between atoms: _185  and  _187
REMARK   80  A    between atoms: _187  and  _188
REMARK   81  A    between atoms: _187  and  _190
REMARK   82  A    between atoms: _190  and  _191
REMARK   83  A    between atoms: _197  and  _199
REMARK   84  A    between atoms: _199  and  _200
REMARK   85  A    between atoms: _199  and  _202
REMARK   86  A    between atoms: _202  and  _203
REMARK   87  A    between atoms: _206  and  _208
REMARK   88  A    between atoms: _208  and  _209
REMARK   89  A    between atoms: _208  and  _211
REMARK   90  A    between atoms: _211  and  _212
REMARK   91  A    between atoms: _217  and  _219
REMARK   92  A    between atoms: _219  and  _220
REMARK   93  A    between atoms: _222  and  _224
REMARK   94  A    between atoms: _224  and  _225
REMARK   95  A    between atoms: _224  and  _227
REMARK   96  A    between atoms: _227  and  _228
REMARK   97  A    between atoms: _231  and  _233
REMARK   98  A    between atoms: _233  and  _234
REMARK   99  A    between atoms: _233  and  _236
REMARK  100  A    between atoms: _236  and  _237
REMARK  101  A    between atoms: _240  and  _242
REMARK  102  A    between atoms: _242  and  _243
REMARK  103  A    between atoms: _246  and  _248
REMARK  104  A    between atoms: _248  and  _249
REMARK  105  A    between atoms: _248  and  _251
REMARK  106  A    between atoms: _254  and  _256
REMARK  107  A    between atoms: _256  and  _257
REMARK  108  A    between atoms: _256  and  _259
REMARK  109  A    between atoms: _259  and  _260
REMARK  110  A    between atoms: _260  and  _261
REMARK  111  A    between atoms: _264  and  _266
REMARK  112  A    between atoms: _266  and  _267
REMARK  113  A    between atoms: _266  and  _269
REMARK  114  A    between atoms: _269  and  _270
REMARK  115  A    between atoms: _270  and  _271
REMARK  116  A    between atoms: _273  and  _275
REMARK  117  A    between atoms: _275  and  _276
REMARK  118  A    between atoms: _275  and  _278
REMARK  119  A    between atoms: _278  and  _279
REMARK  120  A    between atoms: _279  and  _280
REMARK  121  A    between atoms: _283  and  _285
REMARK  122  A    between atoms: _285  and  _286
REMARK  123  A    between atoms: _289  and  _291
REMARK  124  A    between atoms: _291  and  _292
REMARK  125  A    between atoms: _291  and  _294
REMARK  126  A    between atoms: _294  and  _295
REMARK  127  A    between atoms: _295  and  _296
REMARK  128  A    between atoms: _296  and  _297
REMARK  129  A    between atoms: _306  and  _308
REMARK  130  A    between atoms: _308  and  _309
REMARK  131  A    between atoms: _312  and  _314
REMARK  132  A    between atoms: _314  and  _315
REMARK  133  A    between atoms: _314  and  _317
REMARK  134  A    between atoms: _317  and  _318
REMARK  135  A    between atoms: _321  and  _323
REMARK  136  A    between atoms: _323  and  _324
REMARK  137  A    between atoms: _323  and  _326
REMARK  138  A    between atoms: _326  and  _327
REMARK  139  A    between atoms: _329  and  _331
REMARK  140  A    between atoms: _331  and  _332
REMARK  141  A    between atoms: _331  and  _334
REMARK  142  A    between atoms: _334  and  _335
REMARK  143  A    between atoms: _338  and  _340
REMARK  144  A    between atoms: _340  and  _341
REMARK  145  A    between atoms: _340  and  _343
REMARK  146  A    between atoms: _346  and  _348
REMARK  147  A    between atoms: _348  and  _349
REMARK  148  A    between atoms: _352  and  _354
REMARK  149  A    between atoms: _354  and  _355
REMARK  150  A    between atoms: _354  and  _357
REMARK  151  A    between atoms: _357  and  _358
REMARK  152  A    between atoms: _361  and  _363
REMARK  153  A    between atoms: _363  and  _364
REMARK  154  A    between atoms: _363  and  _366
REMARK  155  A    between atoms: _366  and  _367
REMARK  156  A    between atoms: _367  and  _368
REMARK  157  A    between atoms: _373  and  _375
REMARK  158  A    between atoms: _375  and  _376
REMARK  159  A    between atoms: _375  and  _378
REMARK  160  A    between atoms: _378  and  _379
REMARK  161  A    between atoms: _381  and  _383
REMARK  162  A    between atoms: _383  and  _384
REMARK  163  A    between atoms: _383  and  _386
REMARK  164  A    between atoms: _386  and  _387
REMARK  165  A    between atoms: _392  and  _394
REMARK  166  A    between atoms: _394  and  _395
REMARK  167  A    between atoms: _394  and  _397
REMARK  168  A    between atoms: _397  and  _398
REMARK  169  A    between atoms: _400  and  _402
REMARK  170  A    between atoms: _402  and  _403
REMARK  171  A    between atoms: _402  and  _405
REMARK  172  A    between atoms: _405  and  _406
REMARK  173  A    between atoms: _412  and  _414
REMARK  174  A    between atoms: _414  and  _415
REMARK  175  A    between atoms: _414  and  _417
REMARK  176  A    between atoms: _417  and  _418
REMARK  177  A    between atoms: _421  and  _423
REMARK  178  A    between atoms: _423  and  _424
REMARK  179  A    between atoms: _423  and  _426
REMARK  180  A    between atoms: _426  and  _427
REMARK  181  A    between atoms: _430  and  _432
REMARK  182  A    between atoms: _432  and  _433
REMARK  183  A    between atoms: _436  and  _438
REMARK  184  A    between atoms: _438  and  _439
REMARK  185  A    between atoms: _438  and  _441
REMARK  186  A    between atoms: _441  and  _442
REMARK  187  A    between atoms: _445  and  _447
REMARK  188  A    between atoms: _447  and  _448
REMARK  189  A    between atoms: _447  and  _450
REMARK  190  A    between atoms: _453  and  _455
REMARK  191  A    between atoms: _455  and  _456
REMARK  192  A    between atoms: _459  and  _461
REMARK  193  A    between atoms: _461  and  _462
REMARK  194  A    between atoms: _461  and  _464
REMARK  195  A    between atoms: _464  and  _465
REMARK  196  A    between atoms: _471  and  _473
REMARK  197  A    between atoms: _473  and  _474
REMARK  198  A    between atoms: _476  and  _478
REMARK  199  A    between atoms: _478  and  _479
REMARK  200  A    between atoms: _478  and  _481
REMARK  201  A    between atoms: _481  and  _482
REMARK  202  A    between atoms: _487  and  _488
REMARK  203  A    between atoms: _490  and  _492
REMARK  204  A    between atoms: _492  and  _493
REMARK  205  A    between atoms: _492  and  _495
REMARK  206  A    between atoms: _495  and  _496
REMARK  207  A    between atoms: _500  and  _501
REMARK  208  A    between atoms: _506  and  _508
REMARK  209  A    between atoms: _508  and  _509
REMARK                            x       y       z     vdW  Elec       q    Type
REMARK                         _______ _______ _______ _____ _____    ______ ____
ROOT
ATOM      1  CA  ILE A   1     -31.556 -16.847   8.508  0.00  0.00    +0.133 C 
ENDROOT
BRANCH   1   2
ATOM      2  N   ILE A   1     -30.869 -17.265   7.303  0.00  0.00    -0.239 NA
ATOM      3  H   ILE A   1     -30.988 -16.707   6.433  0.00  0.00    +0.142 HD
ENDBRANCH   1   2
BRANCH   1   4
ATOM      4  C   ILE A   1     -32.548 -17.905   9.021  0.00  0.00    +0.224 C 
ATOM      5  O   ILE A   1     -32.615 -18.154  10.234  0.00  0.00    -0.287 OA
ENDBRANCH   1   4
BRANCH   1   6
ATOM      6  CB  ILE A   1     -32.311 -15.524   8.269  0.00  0.00    +0.023 C 
ATOM      7  CG2 ILE A   1     -33.209 -15.201   9.437  0.00  0.00    +0.002 C 
BRANCH   6   8
ATOM      8  CG1 ILE A   1     -31.305 -14.387   8.017  0.00  0.00    +0.002 C 
ATOM      9  CD1 ILE A   1     -31.963 -13.077   7.633  0.00  0.00    +0.000 C 
ENDBRANCH   6   8
ENDBRANCH   1   6
TORSDOF 4
REMARK  Name = ../refined-set-2016/4f3c/4f3c_pocket.pdb
REMARK  209 active torsions:
REMARK  status: ('A' for Active; 'I' for Inactive)
REMARK    1  A    between atoms: _1  and  _3
REMARK    2  A    between atoms: _3  and  _4
REMARK    3  A    between atoms: _6  and  _8
REMARK    4  A    between atoms: _8  and  _9
REMARK    5  A    between atoms: _12  and  _14
REMARK    6  A    between atoms: _14  and  _15
REMARK    7  A    between atoms: _14  and  _17
REMARK    8  A    between atoms: _17  and  _18
REMARK    9  A    between atoms: _18  and  _19
REMARK   10  A    between atoms: _21  and  _23
REMARK   11  A    between atoms: _23  and  _24
REMARK   12  A    between atoms: _23  and  _26
REMARK   13  A    between atoms: _26  and  _27
REMARK   14  A    between atoms: _27  and  _28
REMARK   15  A    between atoms: _31  and  _33
REMARK   16  A    between atoms: _33  and  _34
REMARK   17  A    between atoms: _33  and  _36
REMARK   18  A    between atoms: _36  and  _37
REMARK   19  A    between atoms: _37  and  _38
REMARK   20  A    between atoms: _41  and  _43
REMARK   21  A    between atoms: _43  and  _44
REMARK   22  A    between atoms: _43  and  _46
REMARK   23  A    between atoms: _46  and  _47
REMARK   24  A    between atoms: _49  and  _51
REMARK   25  A    between atoms: _51  and  _52
REMARK   26  A    between atoms: _54  and  _56
REMARK   27  A    between atoms: _56  and  _57
REMARK   28  A    between atoms: _56  and  _59
REMARK   29  A    between atoms: _59  and  _60
REMARK   30  A    between atoms: _63  and  _65
REMARK   31  A    between atoms: _65  and  _66
REMARK   32  A    between atoms: _68  and  _70
REMARK   33  A    between atoms: _70  and  _71
REMARK   34  A    between atoms: _74  and  _76
REMARK   35  A    between atoms: _76  and  _77
REMARK   36  A    between atoms: _80  and  _82
REMARK   37  A    between atoms: _82  and  _83
REMARK   38  A    between atoms: _82  and  _85
REMARK   39  A    between atoms: _85  and  _86
REMARK   40  A    between atoms: _91  and  _93
REMARK   41  A    between atoms: _93  and  _94
REMARK   42  A    between atoms: _93  and  _96
REMARK   43  A    between atoms: _96  and  _97
REMARK   44  A    between atoms: _100  and  _102
REMARK   45  A    between atoms: _102  and  _103
REMARK   46  A    between atoms: _105  and  _107
REMARK   47  A    between atoms: _107  and  _108
REMARK   48  A    between atoms: _107  and  _110
REMARK   49  A    between atoms: _110  and  _111
REMARK   50  A    between atoms: _113  and  _115
REMARK   51  A    between atoms: _115  and  _116
REMARK   52  A    between atoms: _119  and  _121
REMARK   53  A    between atoms: _121  and  _122
REMARK   54  A    between atoms: _124  and  _126
REMARK   55  A    between atoms: _126  and  _127
REMARK   56  A    between atoms: _129  and  _131
REMARK   57  A    between atoms: _131  and  _132
REMARK   58  A    between atoms: _131  and  _134
REMARK   59  A    between atoms: _134  and  _135
REMARK   60  A    between atoms: _138  and  _140
REMARK   61  A    between atoms: _140  and  _141
REMARK   62  A    between atoms: _140  and  _143
REMARK   63  A    between atoms: _143  and  _144
REMARK   64  A    between atoms: _149  and  _151
REMARK   65  A    between atoms: _151  and  _152
REMARK   66  A    between atoms: _151  and  _154
REMARK   67  A    between atoms: _157  and  _159
REMARK   68  A    between atoms: _159  and  _160
REMARK   69  A    between atoms: _159  and  _162
REMARK   70  A    between atoms: _162  and  _163
REMARK   71  A    between atoms: _165  and  _167
REMARK   72  A    between atoms: _167  and  _168
REMARK   73  A    between atoms: _170  and  _172
REMARK   74  A    between atoms: _172  and  _173
REMARK   75  A    between atoms: _172  and  _175
REMARK   76  A    between atoms: _175  and  _176
REMARK   77  A    between atoms: _179  and  _181
REMARK   78  A    between atoms: _181  and  _182
REMARK   79  A    between atoms: _185  and  _187
REMARK   80  A    between atoms: _187  and  _188
REMARK   81  A    between atoms: _187  and  _190
REMARK   82  A    between atoms: _190  and  _191
REMARK   83  A    between atoms: _197  and  _199
REMARK   84  A    between atoms: _199  and  _200
REMARK   85  A    between atoms: _199  and  _202
REMARK   86  A    between atoms: _202  and  _203
REMARK   87  A    between atoms: _206  and  _208
REMARK   88  A    between atoms: _208  and  _209
REMARK   89  A    between atoms: _208  and  _211
REMARK   90  A    between atoms: _211  and  _212
REMARK   91  A    between atoms: _217  and  _219
REMARK   92  A    between atoms: _219  and  _220
REMARK   93  A    between atoms: _222  and  _224
REMARK   94  A    between atoms: _224  and  _225
REMARK   95  A    between atoms: _224  and  _227
REMARK   96  A    between atoms: _227  and  _228
REMARK   97  A    between atoms: _231  and  _233
REMARK   98  A    between atoms: _233  and  _234
REMARK   99  A    between atoms: _233  and  _236
REMARK  100  A    between atoms: _236  and  _237
REMARK  101  A    between atoms: _240  and  _242
REMARK  102  A    between atoms: _242  and  _243
REMARK  103  A    between atoms: _246  and  _248
REMARK  104  A    between atoms: _248  and  _249
REMARK  105  A    between atoms: _248  and  _251
REMARK  106  A    between atoms: _254  and  _256
REMARK  107  A    between atoms: _256  and  _257
REMARK  108  A    between atoms: _256  and  _259
REMARK  109  A    between atoms: _259  and  _260
REMARK  110  A    between atoms: _260  and  _261
REMARK  111  A    between atoms: _264  and  _266
REMARK  112  A    between atoms: _266  and  _267
REMARK  113  A    between atoms: _266  and  _269
REMARK  114  A    between atoms: _269  and  _270
REMARK  115  A    between atoms: _270  and  _271
REMARK  116  A    between atoms: _273  and  _275
REMARK  117  A    between atoms: _275  and  _276
REMARK  118  A    between atoms: _275  and  _278
REMARK  119  A    between atoms: _278  and  _279
REMARK  120  A    between atoms: _279  and  _280
REMARK  121  A    between atoms: _283  and  _285
REMARK  122  A    between atoms: _285  and  _286
REMARK  123  A    between atoms: _289  and  _291
REMARK  124  A    between atoms: _291  and  _292
REMARK  125  A    between atoms: _291  and  _294
REMARK  126  A    between atoms: _294  and  _295
REMARK  127  A    between atoms: _295  and  _296
REMARK  128  A    between atoms: _296  and  _297
REMARK  129  A    between atoms: _306  and  _308
REMARK  130  A    between atoms: _308  and  _309
REMARK  131  A    between atoms: _312  and  _314
REMARK  132  A    between atoms: _314  and  _315
REMARK  133  A    between atoms: _314  and  _317
REMARK  134  A    between atoms: _317  and  _318
REMARK  135  A    between atoms: _321  and  _323
REMARK  136  A    between atoms: _323  and  _324
REMARK  137  A    between atoms: _323  and  _326
REMARK  138  A    between atoms: _326  and  _327
REMARK  139  A    between atoms: _329  and  _331
REMARK  140  A    between atoms: _331  and  _332
REMARK  141  A    between atoms: _331  and  _334
REMARK  142  A    between atoms: _334  and  _335
REMARK  143  A    between atoms: _338  and  _340
REMARK  144  A    between atoms: _340  and  _341
REMARK  145  A    between atoms: _340  and  _343
REMARK  146  A    between atoms: _346  and  _348
REMARK  147  A    between atoms: _348  and  _349
REMARK  148  A    between atoms: _352  and  _354
REMARK  149  A    between atoms: _354  and  _355
REMARK  150  A    between atoms: _354  and  _357
REMARK  151  A    between atoms: _357  and  _358
REMARK  152  A    between atoms: _361  and  _363
REMARK  153  A    between atoms: _363  and  _364
REMARK  154  A    between atoms: _363  and  _366
REMARK  155  A    between atoms: _366  and  _367
REMARK  156  A    between atoms: _367  and  _368
REMARK  157  A    between atoms: _373  and  _375
REMARK  158  A    between atoms: _375  and  _376
REMARK  159  A    between atoms: _375  and  _378
REMARK  160  A    between atoms: _378  and  _379
REMARK  161  A    between atoms: _381  and  _383
REMARK  162  A    between atoms: _383  and  _384
REMARK  163  A    between atoms: _383  and  _386
REMARK  164  A    between atoms: _386  and  _387
REMARK  165  A    between atoms: _392  and  _394
REMARK  166  A    between atoms: _394  and  _395
REMARK  167  A    between atoms: _394  and  _397
REMARK  168  A    between atoms: _397  and  _398
REMARK  169  A    between atoms: _400  and  _402
REMARK  170  A    between atoms: _402  and  _403
REMARK  171  A    between atoms: _402  and  _405
REMARK  172  A    between atoms: _405  and  _406
REMARK  173  A    between atoms: _412  and  _414
REMARK  174  A    between atoms: _414  and  _415
REMARK  175  A    between atoms: _414  and  _417
REMARK  176  A    between atoms: _417  and  _418
REMARK  177  A    between atoms: _421  and  _423
REMARK  178  A    between atoms: _423  and  _424
REMARK  179  A    between atoms: _423  and  _426
REMARK  180  A    between atoms: _426  and  _427
REMARK  181  A    between atoms: _430  and  _432
REMARK  182  A    between atoms: _432  and  _433
REMARK  183  A    between atoms: _436  and  _438
REMARK  184  A    between atoms: _438  and  _439
REMARK  185  A    between atoms: _438  and  _441
REMARK  186  A    between atoms: _441  and  _442
REMARK  187  A    between atoms: _445  and  _447
REMARK  188  A    between atoms: _447  and  _448
REMARK  189  A    between atoms: _447  and  _450
REMARK  190  A    between atoms: _453  and  _455
REMARK  191  A    between atoms: _455  and  _456
REMARK  192  A    between atoms: _459  and  _461
REMARK  193  A    between atoms: _461  and  _462
REMARK  194  A    between atoms: _461  and  _464
REMARK  195  A    between atoms: _464  and  _465
REMARK  196  A    between atoms: _471  and  _473
REMARK  197  A    between atoms: _473  and  _474
REMARK  198  A    between atoms: _476  and  _478
REMARK  199  A    between atoms: _478  and  _479
REMARK  200  A    between atoms: _478  and  _481
REMARK  201  A    between atoms: _481  and  _482
REMARK  202  A    between atoms: _487  and  _488
REMARK  203  A    between atoms: _490  and  _492
REMARK  204  A    between atoms: _492  and  _493
REMARK  205  A    between atoms: _492  and  _495
REMARK  206  A    between atoms: _495  and  _496
REMARK  207  A    between atoms: _500  and  _501
REMARK  208  A    between atoms: _506  and  _508
REMARK  209  A    between atoms: _508  and  _509
REMARK                            x       y       z     vdW  Elec       q    Type
REMARK                         _______ _______ _______ _____ _____    ______ ____
ROOT
ATOM      1  C   GLU A   3     -33.140  -5.663  10.824  0.00  0.00    +0.241 C 
ATOM      2  N   MET A   4     -32.782  -4.391  11.022  0.00  0.00    -0.297 N 
ATOM      3  H   MET A   4     -33.516  -3.698  11.271  0.00  0.00    +0.150 HD
ATOM      4  O   GLU A   3     -32.325  -6.558  10.685  0.00  0.00    -0.273 OA
ENDROOT
BRANCH   2   5
ATOM      5  CA  MET A   4     -31.381  -3.931  10.900  0.00  0.00    +0.149 C 
BRANCH   5   6
ATOM      6  C   MET A   4     -30.879  -3.072  12.066  0.00  0.00    +0.241 C 
ATOM      7  N   GLU A   5     -31.671  -2.894  13.113  0.00  0.00    -0.297 N 
ATOM      8  H   GLU A   5     -32.605  -3.351  13.141  0.00  0.00    +0.150 HD
ATOM      9  O   MET A   4     -29.764  -2.558  12.021  0.00  0.00    -0.273 OA
BRANCH   7  10
ATOM     10  CA  GLU A   5     -31.235  -2.055  14.230  0.00  0.00    +0.149 C 
BRANCH  10  11
ATOM     11  C   GLU A   5     -31.470  -2.614  15.622  0.00  0.00    +0.241 C 
ATOM     12  O   GLU A   5     -30.735  -2.283  16.542  0.00  0.00    -0.273 OA
ATOM     13  N   ALA A   6     -32.524  -3.403  15.790  0.00  0.00    -0.298 N 
ATOM     14  H   ALA A   6     -33.002  -3.790  14.952  0.00  0.00    +0.150 HD
BRANCH  13  15
ATOM     15  CA  ALA A   6     -33.030  -3.742  17.110  0.00  0.00    +0.137 C 
ATOM     16  CB  ALA A   6     -34.245  -4.621  16.978  0.00  0.00    +0.030 C 
BRANCH  15  17
ATOM     17  C   ALA A   6     -32.006  -4.390  18.019  0.00  0.00    +0.227 C 
ATOM     18  O   ALA A   6     -31.940  -4.066  19.208  0.00  0.00    -0.286 OA
ENDBRANCH  15  17
ENDBRANCH  13  15
ENDBRANCH  10  11
BRANCH  10  19
ATOM     19  CB  GLU A   5     -31.943  -0.696  14.162  0.00  0.00    +0.041 C 
BRANCH  19  20
ATOM     20  CG  GLU A   5     -31.632   0.134  12.930  0.00  0.00    +0.116 C 
BRANCH  20  21
ATOM     21  CD  GLU A   5     -32.570  -0.130  11.772  0.00  0.00    +0.365 C 
ATOM     22  OE2 GLU A   5     -33.689  -0.654  11.993  0.00  0.00    -0.246 OA
ATOM     23  OE1 GLU A   5     -32.186   0.158  10.626  0.00  0.00    -0.246 OA
ENDBRANCH  20  21
ENDBRANCH  19  20
ENDBRANCH  10  19
ENDBRANCH   7  10
ENDBRANCH   5   6
BRANCH   5  24
ATOM     24  CB  MET A   4     -31.188  -3.139   9.584  0.00  0.00    +0.041 C 
BRANCH  24  25
ATOM     25  CG  MET A   4     -31.598  -3.924   8.363  0.00  0.00    +0.060 C 
BRANCH  25  26
ATOM     26  SD  MET A   4     -31.558  -3.139   6.757  0.00  0.00    -0.139 S 
ATOM     27  CE  MET A   4     -29.941  -2.376   6.708  0.00  0.00    +0.069 C 
ENDBRANCH  25  26
ENDBRANCH  24  25
ENDBRANCH   5  24
ENDBRANCH   2   5
BRANCH   1  28
ATOM     28  CA  GLU A   3     -34.610  -6.020  10.694  0.00  0.00    +0.149 C 
BRANCH  28  30
ATOM     29  C   VAL A   2     -35.861  -8.102  10.477  0.00  0.00    +0.241 C 
ATOM     30  N   GLU A   3     -34.841  -7.440  11.003  0.00  0.00    -0.297 N 
ATOM     31  H   GLU A   3     -34.191  -7.934  11.647  0.00  0.00    +0.150 HD
ATOM     32  O   VAL A   2     -36.759  -7.562   9.890  0.00  0.00    -0.273 OA
BRANCH  29  33
ATOM     33  CA  VAL A   2     -35.877  -9.622  10.623  0.00  0.00    +0.148 C 
BRANCH  33  36
ATOM     34  C   ALA A   1     -37.615 -10.723  11.976  0.00  0.00    +0.238 C 
ATOM     35  O   ALA A   1     -36.825 -11.092  12.870  0.00  0.00    -0.274 OA
ATOM     36  N   VAL A   2     -37.246 -10.085  10.862  0.00  0.00    -0.297 N 
ATOM     37  H   VAL A   2     -37.964  -9.909  10.130  0.00  0.00    +0.150 HD
BRANCH  34  38
ATOM     38  CA  ALA A   1     -39.091 -11.039  12.078  0.00  0.00    +0.145 C 
ATOM     39  CB  ALA A   1     -39.867  -9.861  12.645  0.00  0.00    +0.028 C 
BRANCH  38  40
ATOM     40  N   ALA A   1     -39.270 -12.204  12.910  0.00  0.00    -0.238 NA
ATOM     41  H   ALA A   1     -38.527 -12.457  13.592  0.00  0.00    +0.142 HD
ENDBRANCH  38  40
ENDBRANCH  34  38
ENDBRANCH  33  36
BRANCH  33  42
ATOM     42  CB  VAL A   2     -35.247 -10.245   9.367  0.00  0.00    +0.027 C 
ATOM     43  CG2 VAL A   2     -33.825  -9.772   9.171  0.00  0.00    +0.002 C 
ATOM     44  CG1 VAL A   2     -36.050  -9.993   8.101  0.00  0.00    +0.002 C 
ENDBRANCH  33  42
ENDBRANCH  29  33
ENDBRANCH  28  30
BRANCH  28  45
ATOM     45  CB  GLU A   3     -35.589  -5.134  11.465  0.00  0.00    +0.041 C 
BRANCH  45  46
ATOM     46  CG  GLU A   3     -35.796  -5.550  12.898  0.00  0.00    +0.116 C 
BRANCH  46  47
ATOM     47  CD  GLU A   3     -34.571  -5.218  13.667  0.00  0.00    +0.365 C 
ATOM     48  OE2 GLU A   3     -33.803  -6.166  14.008  0.00  0.00    -0.246 OA
ATOM     49  OE1 GLU A   3     -34.351  -3.988  13.867  0.00  0.00    -0.246 OA
ENDBRANCH  46  47
ENDBRANCH  45  46
ENDBRANCH  28  45
ENDBRANCH   1  28
TORSDOF 22
REMARK  Name = ../refined-set-2016/4f3c/4f3c_pocket.pdb
REMARK  209 active torsions:
REMARK  status: ('A' for Active; 'I' for Inactive)
REMARK    1  A    between atoms: _1  and  _3
REMARK    2  A    between atoms: _3  and  _4
REMARK    3  A    between atoms: _6  and  _8
REMARK    4  A    between atoms: _8  and  _9
REMARK    5  A    between atoms: _12  and  _14
REMARK    6  A    between atoms: _14  and  _15
REMARK    7  A    between atoms: _14  and  _17
REMARK    8  A    between atoms: _17  and  _18
REMARK    9  A    between atoms: _18  and  _19
REMARK   10  A    between atoms: _21  and  _23
REMARK   11  A    between atoms: _23  and  _24
REMARK   12  A    between atoms: _23  and  _26
REMARK   13  A    between atoms: _26  and  _27
REMARK   14  A    between atoms: _27  and  _28
REMARK   15  A    between atoms: _31  and  _33
REMARK   16  A    between atoms: _33  and  _34
REMARK   17  A    between atoms: _33  and  _36
REMARK   18  A    between atoms: _36  and  _37
REMARK   19  A    between atoms: _37  and  _38
REMARK   20  A    between atoms: _41  and  _43
REMARK   21  A    between atoms: _43  and  _44
REMARK   22  A    between atoms: _43  and  _46
REMARK   23  A    between atoms: _46  and  _47
REMARK   24  A    between atoms: _49  and  _51
REMARK   25  A    between atoms: _51  and  _52
REMARK   26  A    between atoms: _54  and  _56
REMARK   27  A    between atoms: _56  and  _57
REMARK   28  A    between atoms: _56  and  _59
REMARK   29  A    between atoms: _59  and  _60
REMARK   30  A    between atoms: _63  and  _65
REMARK   31  A    between atoms: _65  and  _66
REMARK   32  A    between atoms: _68  and  _70
REMARK   33  A    between atoms: _70  and  _71
REMARK   34  A    between atoms: _74  and  _76
REMARK   35  A    between atoms: _76  and  _77
REMARK   36  A    between atoms: _80  and  _82
REMARK   37  A    between atoms: _82  and  _83
REMARK   38  A    between atoms: _82  and  _85
REMARK   39  A    between atoms: _85  and  _86
REMARK   40  A    between atoms: _91  and  _93
REMARK   41  A    between atoms: _93  and  _94
REMARK   42  A    between atoms: _93  and  _96
REMARK   43  A    between atoms: _96  and  _97
REMARK   44  A    between atoms: _100  and  _102
REMARK   45  A    between atoms: _102  and  _103
REMARK   46  A    between atoms: _105  and  _107
REMARK   47  A    between atoms: _107  and  _108
REMARK   48  A    between atoms: _107  and  _110
REMARK   49  A    between atoms: _110  and  _111
REMARK   50  A    between atoms: _113  and  _115
REMARK   51  A    between atoms: _115  and  _116
REMARK   52  A    between atoms: _119  and  _121
REMARK   53  A    between atoms: _121  and  _122
REMARK   54  A    between atoms: _124  and  _126
REMARK   55  A    between atoms: _126  and  _127
REMARK   56  A    between atoms: _129  and  _131
REMARK   57  A    between atoms: _131  and  _132
REMARK   58  A    between atoms: _131  and  _134
REMARK   59  A    between atoms: _134  and  _135
REMARK   60  A    between atoms: _138  and  _140
REMARK   61  A    between atoms: _140  and  _141
REMARK   62  A    between atoms: _140  and  _143
REMARK   63  A    between atoms: _143  and  _144
REMARK   64  A    between atoms: _149  and  _151
REMARK   65  A    between atoms: _151  and  _152
REMARK   66  A    between atoms: _151  and  _154
REMARK   67  A    between atoms: _157  and  _159
REMARK   68  A    between atoms: _159  and  _160
REMARK   69  A    between atoms: _159  and  _162
REMARK   70  A    between atoms: _162  and  _163
REMARK   71  A    between atoms: _165  and  _167
REMARK   72  A    between atoms: _167  and  _168
REMARK   73  A    between atoms: _170  and  _172
REMARK   74  A    between atoms: _172  and  _173
REMARK   75  A    between atoms: _172  and  _175
REMARK   76  A    between atoms: _175  and  _176
REMARK   77  A    between atoms: _179  and  _181
REMARK   78  A    between atoms: _181  and  _182
REMARK   79  A    between atoms: _185  and  _187
REMARK   80  A    between atoms: _187  and  _188
REMARK   81  A    between atoms: _187  and  _190
REMARK   82  A    between atoms: _190  and  _191
REMARK   83  A    between atoms: _197  and  _199
REMARK   84  A    between atoms: _199  and  _200
REMARK   85  A    between atoms: _199  and  _202
REMARK   86  A    between atoms: _202  and  _203
REMARK   87  A    between atoms: _206  and  _208
REMARK   88  A    between atoms: _208  and  _209
REMARK   89  A    between atoms: _208  and  _211
REMARK   90  A    between atoms: _211  and  _212
REMARK   91  A    between atoms: _217  and  _219
REMARK   92  A    between atoms: _219  and  _220
REMARK   93  A    between atoms: _222  and  _224
REMARK   94  A    between atoms: _224  and  _225
REMARK   95  A    between atoms: _224  and  _227
REMARK   96  A    between atoms: _227  and  _228
REMARK   97  A    between atoms: _231  and  _233
REMARK   98  A    between atoms: _233  and  _234
REMARK   99  A    between atoms: _233  and  _236
REMARK  100  A    between atoms: _236  and  _237
REMARK  101  A    between atoms: _240  and  _242
REMARK  102  A    between atoms: _242  and  _243
REMARK  103  A    between atoms: _246  and  _248
REMARK  104  A    between atoms: _248  and  _249
REMARK  105  A    between atoms: _248  and  _251
REMARK  106  A    between atoms: _254  and  _256
REMARK  107  A    between atoms: _256  and  _257
REMARK  108  A    between atoms: _256  and  _259
REMARK  109  A    between atoms: _259  and  _260
REMARK  110  A    between atoms: _260  and  _261
REMARK  111  A    between atoms: _264  and  _266
REMARK  112  A    between atoms: _266  and  _267
REMARK  113  A    between atoms: _266  and  _269
REMARK  114  A    between atoms: _269  and  _270
REMARK  115  A    between atoms: _270  and  _271
REMARK  116  A    between atoms: _273  and  _275
REMARK  117  A    between atoms: _275  and  _276
REMARK  118  A    between atoms: _275  and  _278
REMARK  119  A    between atoms: _278  and  _279
REMARK  120  A    between atoms: _279  and  _280
REMARK  121  A    between atoms: _283  and  _285
REMARK  122  A    between atoms: _285  and  _286
REMARK  123  A    between atoms: _289  and  _291
REMARK  124  A    between atoms: _291  and  _292
REMARK  125  A    between atoms: _291  and  _294
REMARK  126  A    between atoms: _294  and  _295
REMARK  127  A    between atoms: _295  and  _296
REMARK  128  A    between atoms: _296  and  _297
REMARK  129  A    between atoms: _306  and  _308
REMARK  130  A    between atoms: _308  and  _309
REMARK  131  A    between atoms: _312  and  _314
REMARK  132  A    between atoms: _314  and  _315
REMARK  133  A    between atoms: _314  and  _317
REMARK  134  A    between atoms: _317  and  _318
REMARK  135  A    between atoms: _321  and  _323
REMARK  136  A    between atoms: _323  and  _324
REMARK  137  A    between atoms: _323  and  _326
REMARK  138  A    between atoms: _326  and  _327
REMARK  139  A    between atoms: _329  and  _331
REMARK  140  A    between atoms: _331  and  _332
REMARK  141  A    between atoms: _331  and  _334
REMARK  142  A    between atoms: _334  and  _335
REMARK  143  A    between atoms: _338  and  _340
REMARK  144  A    between atoms: _340  and  _341
REMARK  145  A    between atoms: _340  and  _343
REMARK  146  A    between atoms: _346  and  _348
REMARK  147  A    between atoms: _348  and  _349
REMARK  148  A    between atoms: _352  and  _354
REMARK  149  A    between atoms: _354  and  _355
REMARK  150  A    between atoms: _354  and  _357
REMARK  151  A    between atoms: _357  and  _358
REMARK  152  A    between atoms: _361  and  _363
REMARK  153  A    between atoms: _363  and  _364
REMARK  154  A    between atoms: _363  and  _366
REMARK  155  A    between atoms: _366  and  _367
REMARK  156  A    between atoms: _367  and  _368
REMARK  157  A    between atoms: _373  and  _375
REMARK  158  A    between atoms: _375  and  _376
REMARK  159  A    between atoms: _375  and  _378
REMARK  160  A    between atoms: _378  and  _379
REMARK  161  A    between atoms: _381  and  _383
REMARK  162  A    between atoms: _383  and  _384
REMARK  163  A    between atoms: _383  and  _386
REMARK  164  A    between atoms: _386  and  _387
REMARK  165  A    between atoms: _392  and  _394
REMARK  166  A    between atoms: _394  and  _395
REMARK  167  A    between atoms: _394  and  _397
REMARK  168  A    between atoms: _397  and  _398
REMARK  169  A    between atoms: _400  and  _402
REMARK  170  A    between atoms: _402  and  _403
REMARK  171  A    between atoms: _402  and  _405
REMARK  172  A    between atoms: _405  and  _406
REMARK  173  A    between atoms: _412  and  _414
REMARK  174  A    between atoms: _414  and  _415
REMARK  175  A    between atoms: _414  and  _417
REMARK  176  A    between atoms: _417  and  _418
REMARK  177  A    between atoms: _421  and  _423
REMARK  178  A    between atoms: _423  and  _424
REMARK  179  A    between atoms: _423  and  _426
REMARK  180  A    between atoms: _426  and  _427
REMARK  181  A    between atoms: _430  and  _432
REMARK  182  A    between atoms: _432  and  _433
REMARK  183  A    between atoms: _436  and  _438
REMARK  184  A    between atoms: _438  and  _439
REMARK  185  A    between atoms: _438  and  _441
REMARK  186  A    between atoms: _441  and  _442
REMARK  187  A    between atoms: _445  and  _447
REMARK  188  A    between atoms: _447  and  _448
REMARK  189  A    between atoms: _447  and  _450
REMARK  190  A    between atoms: _453  and  _455
REMARK  191  A    between atoms: _455  and  _456
REMARK  192  A    between atoms: _459  and  _461
REMARK  193  A    between atoms: _461  and  _462
REMARK  194  A    between atoms: _461  and  _464
REMARK  195  A    between atoms: _464  and  _465
REMARK  196  A    between atoms: _471  and  _473
REMARK  197  A    between atoms: _473  and  _474
REMARK  198  A    between atoms: _476  and  _478
REMARK  199  A    between atoms: _478  and  _479
REMARK  200  A    between atoms: _478  and  _481
REMARK  201  A    between atoms: _481  and  _482
REMARK  202  A    between atoms: _487  and  _488
REMARK  203  A    between atoms: _490  and  _492
REMARK  204  A    between atoms: _492  and  _493
REMARK  205  A    between atoms: _492  and  _495
REMARK  206  A    between atoms: _495  and  _496
REMARK  207  A    between atoms: _500  and  _501
REMARK  208  A    between atoms: _506  and  _508
REMARK  209  A    between atoms: _508  and  _509
REMARK                            x       y       z     vdW  Elec       q    Type
REMARK                         _______ _______ _______ _____ _____    ______ ____
ROOT
ATOM      1  CA  SER A   4     -43.885  -3.795   5.917  0.00  0.00    +0.178 C 
ENDROOT
BRANCH   1   4
ATOM      2  C   ILE A   3     -44.902  -4.763   7.934  0.00  0.00    +0.241 C 
ATOM      3  O   ILE A   3     -46.014  -4.368   7.631  0.00  0.00    -0.273 OA
ATOM      4  N   SER A   4     -43.836  -4.535   7.175  0.00  0.00    -0.295 N 
ATOM      5  H   SER A   4     -42.917  -4.903   7.494  0.00  0.00    +0.150 HD
BRANCH   2   6
ATOM      6  CA  ILE A   3     -44.652  -5.594   9.219  0.00  0.00    +0.149 C 
BRANCH   6   9
ATOM      7  C   ALA A   2     -44.442  -4.003  11.041  0.00  0.00    +0.241 C 
ATOM      8  O   ALA A   2     -43.458  -3.477  10.529  0.00  0.00    -0.273 OA
ATOM      9  N   ILE A   3     -45.134  -4.958  10.443  0.00  0.00    -0.297 N 
ATOM     10  H   ILE A   3     -46.040  -5.263  10.852  0.00  0.00    +0.150 HD
BRANCH   7  11
ATOM     11  CA  ALA A   2     -44.958  -3.542  12.392  0.00  0.00    +0.149 C 
ATOM     12  CB  ALA A   2     -46.027  -2.478  12.224  0.00  0.00    +0.031 C 
BRANCH  11  15
ATOM     13  C   ARG A   1     -43.675  -3.457  14.452  0.00  0.00    +0.238 C 
ATOM     14  O   ARG A   1     -44.443  -4.241  15.008  0.00  0.00    -0.274 OA
ATOM     15  N   ALA A   2     -43.871  -3.029  13.213  0.00  0.00    -0.297 N 
ATOM     16  H   ALA A   2     -43.233  -2.309  12.818  0.00  0.00    +0.150 HD
BRANCH  13  17
ATOM     17  CA  ARG A   1     -42.474  -2.882  15.195  0.00  0.00    +0.145 C 
BRANCH  17  18
ATOM     18  N   ARG A   1     -42.553  -3.258  16.577  0.00  0.00    -0.238 NA
ATOM     19  H   ARG A   1     -42.606  -4.268  16.818  0.00  0.00    +0.142 HD
ENDBRANCH  17  18
BRANCH  17  20
ATOM     20  CB  ARG A   1     -41.146  -3.383  14.621  0.00  0.00    +0.030 C 
BRANCH  20  21
ATOM     21  CG  ARG A   1     -39.933  -2.554  15.034  0.00  0.00    +0.045 C 
BRANCH  21  22
ATOM     22  CD  ARG A   1     -38.683  -3.264  14.577  0.00  0.00    +0.174 C 
BRANCH  22  23
ATOM     23  NE  ARG A   1     -37.433  -2.567  14.837  0.00  0.00    -0.265 N 
ATOM     24  HE  ARG A   1     -37.026  -2.655  15.790  0.00  0.00    +0.259 HD
ATOM     25  CZ  ARG A   1     -36.768  -1.825  13.954  0.00  0.00    +0.342 C 
ATOM     26  NH2 ARG A   1     -35.622  -1.280  14.304  0.00  0.00    -0.292 N 
ATOM     27 HH21 ARG A   1     -35.245  -1.431  15.262  0.00  0.00    +0.255 HD
ATOM     28 HH22 ARG A   1     -35.093  -0.698  13.623  0.00  0.00    +0.255 HD
ATOM     29  NH1 ARG A   1     -37.215  -1.628  12.725  0.00  0.00    -0.292 N 
ATOM     30 HH11 ARG A   1     -38.112  -2.059  12.423  0.00  0.00    +0.255 HD
ATOM     31 HH12 ARG A   1     -36.670  -1.042  12.061  0.00  0.00    +0.255 HD
ENDBRANCH  22  23
ENDBRANCH  21  22
ENDBRANCH  20  21
ENDBRANCH  17  20
ENDBRANCH  13  17
ENDBRANCH  11  15
ENDBRANCH   7  11
ENDBRANCH   6   9
BRANCH   6  32
ATOM     32  CB  ILE A   3     -45.270  -6.993   9.106  0.00  0.00    +0.027 C 
ATOM     33  CG2 ILE A   3     -44.862  -7.661   7.820  0.00  0.00    +0.002 C 
BRANCH  32  34
ATOM     34  CG1 ILE A   3     -44.855  -7.829  10.325  0.00  0.00    +0.002 C 
ATOM     35  CD1 ILE A   3     -43.345  -7.891  10.555  0.00  0.00    +0.000 C 
ENDBRANCH  32  34
ENDBRANCH   6  32
ENDBRANCH   2   6
ENDBRANCH   1   4
BRANCH   1  36
ATOM     36  C   SER A   4     -43.776  -4.743   4.738  0.00  0.00    +0.243 C 
ATOM     37  N   ASP A   5     -43.254  -5.931   4.984  0.00  0.00    -0.296 N 
ATOM     38  H   ASP A   5     -43.028  -6.183   5.967  0.00  0.00    +0.150 HD
ATOM     39  O   SER A   4     -44.086  -4.392   3.624  0.00  0.00    -0.273 OA
BRANCH  37  40
ATOM     40  CA  ASP A   5     -42.985  -6.894   3.942  0.00  0.00    +0.160 C 
BRANCH  40  41
ATOM     41  C   ASP A   5     -42.697  -8.248   4.604  0.00  0.00    +0.241 C 
ATOM     42  O   ASP A   5     -42.526  -8.308   5.822  0.00  0.00    -0.273 OA
ATOM     43  N   VAL A   6     -42.590  -9.306   3.792  0.00  0.00    -0.297 N 
ATOM     44  H   VAL A   6     -42.707  -9.168   2.768  0.00  0.00    +0.150 HD
BRANCH  43  45
ATOM     45  CA  VAL A   6     -42.310 -10.673   4.305  0.00  0.00    +0.149 C 
BRANCH  45  46
ATOM     46  C   VAL A   6     -40.891 -11.172   3.985  0.00  0.00    +0.241 C 
ATOM     47  O   VAL A   6     -40.640 -12.370   3.967  0.00  0.00    -0.273 OA
ATOM     48  N   ALA A   7     -39.955 -10.234   3.789  0.00  0.00    -0.297 N 
ATOM     49  H   ALA A   7     -40.256  -9.239   3.751  0.00  0.00    +0.150 HD
BRANCH  48  50
ATOM     50  CA  ALA A   7     -38.541 -10.530   3.626  0.00  0.00    +0.149 C 
ATOM     51  CB  ALA A   7     -37.975 -11.136   4.915  0.00  0.00    +0.031 C 
BRANCH  50  52
ATOM     52  C   ALA A   7     -38.259 -11.421   2.422  0.00  0.00    +0.241 C 
ATOM     53  O   ALA A   7     -37.269 -12.138   2.401  0.00  0.00    -0.273 OA
ATOM     54  N   ASP A   8     -39.161 -11.354   1.441  0.00  0.00    -0.298 N 
ATOM     55  H   ASP A   8     -39.894 -10.621   1.528  0.00  0.00    +0.150 HD
BRANCH  54  56
ATOM     56  CA  ASP A   8     -39.222 -12.218   0.244  0.00  0.00    +0.148 C 
BRANCH  56  57
ATOM     57  C   ASP A   8     -40.382 -11.653  -0.610  0.00  0.00    +0.227 C 
ATOM     58  O   ASP A   8     -41.055 -10.705  -0.176  0.00  0.00    -0.286 OA
ENDBRANCH  56  57
BRANCH  56  59
ATOM     59  CB  ASP A   8     -39.523 -13.669   0.633  0.00  0.00    +0.142 C 
BRANCH  59  60
ATOM     60  CG  ASP A   8     -39.386 -14.664  -0.553  0.00  0.00    +0.367 C 
ATOM     61  OD2 ASP A   8     -40.018 -15.719  -0.502  0.00  0.00    -0.246 OA
ATOM     62  OD1 ASP A   8     -38.685 -14.395  -1.532  0.00  0.00    -0.246 OA
ENDBRANCH  59  60
ENDBRANCH  56  59
ENDBRANCH  54  56
ENDBRANCH  50  52
ENDBRANCH  48  50
ENDBRANCH  45  46
BRANCH  45  63
ATOM     63  CB  VAL A   6     -43.393 -11.705   3.854  0.00  0.00    +0.027 C 
ATOM     64  CG2 VAL A   6     -44.741 -11.320   4.416  0.00  0.00    +0.002 C 
ATOM     65  CG1 VAL A   6     -43.491 -11.796   2.353  0.00  0.00    +0.002 C 
ENDBRANCH  45  63
ENDBRANCH  43  45
ENDBRANCH  40  41
BRANCH  40  66
ATOM     66  CB  ASP A   5     -41.771  -6.447   3.126  0.00  0.00    +0.143 C 
BRANCH  66  67
ATOM     67  CG  ASP A   5     -40.517  -6.321   3.973  0.00  0.00    +0.367 C 
ATOM     68  OD2 ASP A   5     -40.299  -5.216   4.530  0.00  0.00    -0.246 OA
ATOM     69  OD1 ASP A   5     -39.745  -7.325   4.105  0.00  0.00    -0.246 OA
ENDBRANCH  66  67
ENDBRANCH  40  66
ENDBRANCH  37  40
ENDBRANCH   1  36
BRANCH   1  70
ATOM     70  CB  SER A   4     -42.698  -2.837   5.866  0.00  0.00    +0.166 C 
BRANCH  70  71
ATOM     71  OG  SER A   4     -41.487  -3.518   6.149  0.00  0.00    -0.380 OA
ATOM     72  H   SER A   4     -41.348  -4.234   5.480  0.00  0.00    +0.211 HD
ENDBRANCH  70  71
ENDBRANCH   1  70
TORSDOF 29
REMARK  Name = ../refined-set-2016/4f3c/4f3c_pocket.pdb
REMARK  209 active torsions:
REMARK  status: ('A' for Active; 'I' for Inactive)
REMARK    1  A    between atoms: _1  and  _3
REMARK    2  A    between atoms: _3  and  _4
REMARK    3  A    between atoms: _6  and  _8
REMARK    4  A    between atoms: _8  and  _9
REMARK    5  A    between atoms: _12  and  _14
REMARK    6  A    between atoms: _14  and  _15
REMARK    7  A    between atoms: _14  and  _17
REMARK    8  A    between atoms: _17  and  _18
REMARK    9  A    between atoms: _18  and  _19
REMARK   10  A    between atoms: _21  and  _23
REMARK   11  A    between atoms: _23  and  _24
REMARK   12  A    between atoms: _23  and  _26
REMARK   13  A    between atoms: _26  and  _27
REMARK   14  A    between atoms: _27  and  _28
REMARK   15  A    between atoms: _31  and  _33
REMARK   16  A    between atoms: _33  and  _34
REMARK   17  A    between atoms: _33  and  _36
REMARK   18  A    between atoms: _36  and  _37
REMARK   19  A    between atoms: _37  and  _38
REMARK   20  A    between atoms: _41  and  _43
REMARK   21  A    between atoms: _43  and  _44
REMARK   22  A    between atoms: _43  and  _46
REMARK   23  A    between atoms: _46  and  _47
REMARK   24  A    between atoms: _49  and  _51
REMARK   25  A    between atoms: _51  and  _52
REMARK   26  A    between atoms: _54  and  _56
REMARK   27  A    between atoms: _56  and  _57
REMARK   28  A    between atoms: _56  and  _59
REMARK   29  A    between atoms: _59  and  _60
REMARK   30  A    between atoms: _63  and  _65
REMARK   31  A    between atoms: _65  and  _66
REMARK   32  A    between atoms: _68  and  _70
REMARK   33  A    between atoms: _70  and  _71
REMARK   34  A    between atoms: _74  and  _76
REMARK   35  A    between atoms: _76  and  _77
REMARK   36  A    between atoms: _80  and  _82
REMARK   37  A    between atoms: _82  and  _83
REMARK   38  A    between atoms: _82  and  _85
REMARK   39  A    between atoms: _85  and  _86
REMARK   40  A    between atoms: _91  and  _93
REMARK   41  A    between atoms: _93  and  _94
REMARK   42  A    between atoms: _93  and  _96
REMARK   43  A    between atoms: _96  and  _97
REMARK   44  A    between atoms: _100  and  _102
REMARK   45  A    between atoms: _102  and  _103
REMARK   46  A    between atoms: _105  and  _107
REMARK   47  A    between atoms: _107  and  _108
REMARK   48  A    between atoms: _107  and  _110
REMARK   49  A    between atoms: _110  and  _111
REMARK   50  A    between atoms: _113  and  _115
REMARK   51  A    between atoms: _115  and  _116
REMARK   52  A    between atoms: _119  and  _121
REMARK   53  A    between atoms: _121  and  _122
REMARK   54  A    between atoms: _124  and  _126
REMARK   55  A    between atoms: _126  and  _127
REMARK   56  A    between atoms: _129  and  _131
REMARK   57  A    between atoms: _131  and  _132
REMARK   58  A    between atoms: _131  and  _134
REMARK   59  A    between atoms: _134  and  _135
REMARK   60  A    between atoms: _138  and  _140
REMARK   61  A    between atoms: _140  and  _141
REMARK   62  A    between atoms: _140  and  _143
REMARK   63  A    between atoms: _143  and  _144
REMARK   64  A    between atoms: _149  and  _151
REMARK   65  A    between atoms: _151  and  _152
REMARK   66  A    between atoms: _151  and  _154
REMARK   67  A    between atoms: _157  and  _159
REMARK   68  A    between atoms: _159  and  _160
REMARK   69  A    between atoms: _159  and  _162
REMARK   70  A    between atoms: _162  and  _163
REMARK   71  A    between atoms: _165  and  _167
REMARK   72  A    between atoms: _167  and  _168
REMARK   73  A    between atoms: _170  and  _172
REMARK   74  A    between atoms: _172  and  _173
REMARK   75  A    between atoms: _172  and  _175
REMARK   76  A    between atoms: _175  and  _176
REMARK   77  A    between atoms: _179  and  _181
REMARK   78  A    between atoms: _181  and  _182
REMARK   79  A    between atoms: _185  and  _187
REMARK   80  A    between atoms: _187  and  _188
REMARK   81  A    between atoms: _187  and  _190
REMARK   82  A    between atoms: _190  and  _191
REMARK   83  A    between atoms: _197  and  _199
REMARK   84  A    between atoms: _199  and  _200
REMARK   85  A    between atoms: _199  and  _202
REMARK   86  A    between atoms: _202  and  _203
REMARK   87  A    between atoms: _206  and  _208
REMARK   88  A    between atoms: _208  and  _209
REMARK   89  A    between atoms: _208  and  _211
REMARK   90  A    between atoms: _211  and  _212
REMARK   91  A    between atoms: _217  and  _219
REMARK   92  A    between atoms: _219  and  _220
REMARK   93  A    between atoms: _222  and  _224
REMARK   94  A    between atoms: _224  and  _225
REMARK   95  A    between atoms: _224  and  _227
REMARK   96  A    between atoms: _227  and  _228
REMARK   97  A    between atoms: _231  and  _233
REMARK   98  A    between atoms: _233  and  _234
REMARK   99  A    between atoms: _233  and  _236
REMARK  100  A    between atoms: _236  and  _237
REMARK  101  A    between atoms: _240  and  _242
REMARK  102  A    between atoms: _242  and  _243
REMARK  103  A    between atoms: _246  and  _248
REMARK  104  A    between atoms: _248  and  _249
REMARK  105  A    between atoms: _248  and  _251
REMARK  106  A    between atoms: _254  and  _256
REMARK  107  A    between atoms: _256  and  _257
REMARK  108  A    between atoms: _256  and  _259
REMARK  109  A    between atoms: _259  and  _260
REMARK  110  A    between atoms: _260  and  _261
REMARK  111  A    between atoms: _264  and  _266
REMARK  112  A    between atoms: _266  and  _267
REMARK  113  A    between atoms: _266  and  _269
REMARK  114  A    between atoms: _269  and  _270
REMARK  115  A    between atoms: _270  and  _271
REMARK  116  A    between atoms: _273  and  _275
REMARK  117  A    between atoms: _275  and  _276
REMARK  118  A    between atoms: _275  and  _278
REMARK  119  A    between atoms: _278  and  _279
REMARK  120  A    between atoms: _279  and  _280
REMARK  121  A    between atoms: _283  and  _285
REMARK  122  A    between atoms: _285  and  _286
REMARK  123  A    between atoms: _289  and  _291
REMARK  124  A    between atoms: _291  and  _292
REMARK  125  A    between atoms: _291  and  _294
REMARK  126  A    between atoms: _294  and  _295
REMARK  127  A    between atoms: _295  and  _296
REMARK  128  A    between atoms: _296  and  _297
REMARK  129  A    between atoms: _306  and  _308
REMARK  130  A    between atoms: _308  and  _309
REMARK  131  A    between atoms: _312  and  _314
REMARK  132  A    between atoms: _314  and  _315
REMARK  133  A    between atoms: _314  and  _317
REMARK  134  A    between atoms: _317  and  _318
REMARK  135  A    between atoms: _321  and  _323
REMARK  136  A    between atoms: _323  and  _324
REMARK  137  A    between atoms: _323  and  _326
REMARK  138  A    between atoms: _326  and  _327
REMARK  139  A    between atoms: _329  and  _331
REMARK  140  A    between atoms: _331  and  _332
REMARK  141  A    between atoms: _331  and  _334
REMARK  142  A    between atoms: _334  and  _335
REMARK  143  A    between atoms: _338  and  _340
REMARK  144  A    between atoms: _340  and  _341
REMARK  145  A    between atoms: _340  and  _343
REMARK  146  A    between atoms: _346  and  _348
REMARK  147  A    between atoms: _348  and  _349
REMARK  148  A    between atoms: _352  and  _354
REMARK  149  A    between atoms: _354  and  _355
REMARK  150  A    between atoms: _354  and  _357
REMARK  151  A    between atoms: _357  and  _358
REMARK  152  A    between atoms: _361  and  _363
REMARK  153  A    between atoms: _363  and  _364
REMARK  154  A    between atoms: _363  and  _366
REMARK  155  A    between atoms: _366  and  _367
REMARK  156  A    between atoms: _367  and  _368
REMARK  157  A    between atoms: _373  and  _375
REMARK  158  A    between atoms: _375  and  _376
REMARK  159  A    between atoms: _375  and  _378
REMARK  160  A    between atoms: _378  and  _379
REMARK  161  A    between atoms: _381  and  _383
REMARK  162  A    between atoms: _383  and  _384
REMARK  163  A    between atoms: _383  and  _386
REMARK  164  A    between atoms: _386  and  _387
REMARK  165  A    between atoms: _392  and  _394
REMARK  166  A    between atoms: _394  and  _395
REMARK  167  A    between atoms: _394  and  _397
REMARK  168  A    between atoms: _397  and  _398
REMARK  169  A    between atoms: _400  and  _402
REMARK  170  A    between atoms: _402  and  _403
REMARK  171  A    between atoms: _402  and  _405
REMARK  172  A    between atoms: _405  and  _406
REMARK  173  A    between atoms: _412  and  _414
REMARK  174  A    between atoms: _414  and  _415
REMARK  175  A    between atoms: _414  and  _417
REMARK  176  A    between atoms: _417  and  _418
REMARK  177  A    between atoms: _421  and  _423
REMARK  178  A    between atoms: _423  and  _424
REMARK  179  A    between atoms: _423  and  _426
REMARK  180  A    between atoms: _426  and  _427
REMARK  181  A    between atoms: _430  and  _432
REMARK  182  A    between atoms: _432  and  _433
REMARK  183  A    between atoms: _436  and  _438
REMARK  184  A    between atoms: _438  and  _439
REMARK  185  A    between atoms: _438  and  _441
REMARK  186  A    between atoms: _441  and  _442
REMARK  187  A    between atoms: _445  and  _447
REMARK  188  A    between atoms: _447  and  _448
REMARK  189  A    between atoms: _447  and  _450
REMARK  190  A    between atoms: _453  and  _455
REMARK  191  A    between atoms: _455  and  _456
REMARK  192  A    between atoms: _459  and  _461
REMARK  193  A    between atoms: _461  and  _462
REMARK  194  A    between atoms: _461  and  _464
REMARK  195  A    between atoms: _464  and  _465
REMARK  196  A    between atoms: _471  and  _473
REMARK  197  A    between atoms: _473  and  _474
REMARK  198  A    between atoms: _476  and  _478
REMARK  199  A    between atoms: _478  and  _479
REMARK  200  A    between atoms: _478  and  _481
REMARK  201  A    between atoms: _481  and  _482
REMARK  202  A    between atoms: _487  and  _488
REMARK  203  A    between atoms: _490  and  _492
REMARK  204  A    between atoms: _492  and  _493
REMARK  205  A    between atoms: _492  and  _495
REMARK  206  A    between atoms: _495  and  _496
REMARK  207  A    between atoms: _500  and  _501
REMARK  208  A    between atoms: _506  and  _508
REMARK  209  A    between atoms: _508  and  _509
REMARK                            x       y       z     vdW  Elec       q    Type
REMARK                         _______ _______ _______ _____ _____    ______ ____
ROOT
ATOM      1  CA  SER A   2     -39.745  -7.196  -0.341  0.00  0.00    +0.178 C 
ENDROOT
BRANCH   1   3
ATOM      2  C   GLN A   1     -40.281  -7.656  -2.665  0.00  0.00    +0.238 C 
ATOM      3  N   SER A   2     -39.563  -7.935  -1.583  0.00  0.00    -0.295 N 
ATOM      4  H   SER A   2     -38.856  -8.697  -1.623  0.00  0.00    +0.150 HD
ATOM      5  O   GLN A   1     -41.067  -6.689  -2.725  0.00  0.00    -0.274 OA
BRANCH   2   6
ATOM      6  CA  GLN A   1     -40.048  -8.607  -3.856  0.00  0.00    +0.145 C 
BRANCH   6   7
ATOM      7  N   GLN A   1     -40.380  -9.999  -3.509  0.00  0.00    -0.238 NA
ATOM      8  H   GLN A   1     -39.672 -10.747  -3.656  0.00  0.00    +0.142 HD
ENDBRANCH   6   7
BRANCH   6   9
ATOM      9  CB  GLN A   1     -40.837  -8.181  -5.104  0.00  0.00    +0.036 C 
BRANCH   9  10
ATOM     10  CG  GLN A   1     -40.100  -8.307  -6.434  0.00  0.00    +0.087 C 
BRANCH  10  11
ATOM     11  CD  GLN A   1     -39.106  -9.463  -6.531  0.00  0.00    +0.219 C 
ATOM     12  OE1 GLN A   1     -38.138  -9.565  -5.760  0.00  0.00    -0.275 OA
ATOM     13  NE2 GLN A   1     -39.320 -10.326  -7.517  0.00  0.00    -0.329 N 
ATOM     14 HE21 GLN A   1     -38.665 -11.121  -7.664  0.00  0.00    +0.145 HD
ATOM     15 HE22 GLN A   1     -40.142 -10.207  -8.143  0.00  0.00    +0.145 HD
ENDBRANCH  10  11
ENDBRANCH   9  10
ENDBRANCH   6   9
ENDBRANCH   2   6
ENDBRANCH   1   3
BRANCH   1  16
ATOM     16  C   SER A   2     -39.423  -5.708  -0.488  0.00  0.00    +0.243 C 
ATOM     17  O   SER A   2     -39.999  -4.897   0.216  0.00  0.00    -0.273 OA
ATOM     18  N   HIS A   3     -38.523  -5.381  -1.405  0.00  0.00    -0.298 N 
ATOM     19  H   HIS A   3     -38.052  -6.136  -1.943  0.00  0.00    +0.150 HD
BRANCH  18  20
ATOM     20  CA  HIS A   3     -38.172  -3.977  -1.683  0.00  0.00    +0.143 C 
BRANCH  20  21
ATOM     21  C   HIS A   3     -39.380  -3.186  -2.213  0.00  0.00    +0.227 C 
ATOM     22  O   HIS A   3     -39.557  -2.024  -1.856  0.00  0.00    -0.286 OA
ENDBRANCH  20  21
BRANCH  20  23
ATOM     23  CB  HIS A   3     -36.947  -3.871  -2.607  0.00  0.00    +0.075 C 
BRANCH  23  24
ATOM     24  CG  HIS A   3     -37.111  -4.518  -3.950  0.00  0.00    +0.082 A 
ATOM     25  ND1 HIS A   3     -37.380  -5.861  -4.112  0.00  0.00    -0.227 NA
ATOM     26  CE1 HIS A   3     -37.451  -6.145  -5.398  0.00  0.00    +0.199 A 
ATOM     27  NE2 HIS A   3     -37.245  -5.035  -6.081  0.00  0.00    -0.221 NA
ATOM     28  CD2 HIS A   3     -37.025  -4.003  -5.198  0.00  0.00    +0.115 A 
ENDBRANCH  23  24
ENDBRANCH  20  23
ENDBRANCH  18  20
ENDBRANCH   1  16
BRANCH   1  29
ATOM     29  CB  SER A   2     -38.922  -7.801   0.785  0.00  0.00    +0.166 C 
BRANCH  29  30
ATOM     30  OG  SER A   2     -37.565  -7.864   0.446  0.00  0.00    -0.380 OA
ATOM     31  H   SER A   2     -37.057  -8.261   1.197  0.00  0.00    +0.211 HD
ENDBRANCH  29  30
ENDBRANCH   1  29
TORSDOF 13
REMARK  Name = ../refined-set-2016/4f3c/4f3c_pocket.pdb
REMARK  209 active torsions:
REMARK  status: ('A' for Active; 'I' for Inactive)
REMARK    1  A    between atoms: _1  and  _3
REMARK    2  A    between atoms: _3  and  _4
REMARK    3  A    between atoms: _6  and  _8
REMARK    4  A    between atoms: _8  and  _9
REMARK    5  A    between atoms: _12  and  _14
REMARK    6  A    between atoms: _14  and  _15
REMARK    7  A    between atoms: _14  and  _17
REMARK    8  A    between atoms: _17  and  _18
REMARK    9  A    between atoms: _18  and  _19
REMARK   10  A    between atoms: _21  and  _23
REMARK   11  A    between atoms: _23  and  _24
REMARK   12  A    between atoms: _23  and  _26
REMARK   13  A    between atoms: _26  and  _27
REMARK   14  A    between atoms: _27  and  _28
REMARK   15  A    between atoms: _31  and  _33
REMARK   16  A    between atoms: _33  and  _34
REMARK   17  A    between atoms: _33  and  _36
REMARK   18  A    between atoms: _36  and  _37
REMARK   19  A    between atoms: _37  and  _38
REMARK   20  A    between atoms: _41  and  _43
REMARK   21  A    between atoms: _43  and  _44
REMARK   22  A    between atoms: _43  and  _46
REMARK   23  A    between atoms: _46  and  _47
REMARK   24  A    between atoms: _49  and  _51
REMARK   25  A    between atoms: _51  and  _52
REMARK   26  A    between atoms: _54  and  _56
REMARK   27  A    between atoms: _56  and  _57
REMARK   28  A    between atoms: _56  and  _59
REMARK   29  A    between atoms: _59  and  _60
REMARK   30  A    between atoms: _63  and  _65
REMARK   31  A    between atoms: _65  and  _66
REMARK   32  A    between atoms: _68  and  _70
REMARK   33  A    between atoms: _70  and  _71
REMARK   34  A    between atoms: _74  and  _76
REMARK   35  A    between atoms: _76  and  _77
REMARK   36  A    between atoms: _80  and  _82
REMARK   37  A    between atoms: _82  and  _83
REMARK   38  A    between atoms: _82  and  _85
REMARK   39  A    between atoms: _85  and  _86
REMARK   40  A    between atoms: _91  and  _93
REMARK   41  A    between atoms: _93  and  _94
REMARK   42  A    between atoms: _93  and  _96
REMARK   43  A    between atoms: _96  and  _97
REMARK   44  A    between atoms: _100  and  _102
REMARK   45  A    between atoms: _102  and  _103
REMARK   46  A    between atoms: _105  and  _107
REMARK   47  A    between atoms: _107  and  _108
REMARK   48  A    between atoms: _107  and  _110
REMARK   49  A    between atoms: _110  and  _111
REMARK   50  A    between atoms: _113  and  _115
REMARK   51  A    between atoms: _115  and  _116
REMARK   52  A    between atoms: _119  and  _121
REMARK   53  A    between atoms: _121  and  _122
REMARK   54  A    between atoms: _124  and  _126
REMARK   55  A    between atoms: _126  and  _127
REMARK   56  A    between atoms: _129  and  _131
REMARK   57  A    between atoms: _131  and  _132
REMARK   58  A    between atoms: _131  and  _134
REMARK   59  A    between atoms: _134  and  _135
REMARK   60  A    between atoms: _138  and  _140
REMARK   61  A    between atoms: _140  and  _141
REMARK   62  A    between atoms: _140  and  _143
REMARK   63  A    between atoms: _143  and  _144
REMARK   64  A    between atoms: _149  and  _151
REMARK   65  A    between atoms: _151  and  _152
REMARK   66  A    between atoms: _151  and  _154
REMARK   67  A    between atoms: _157  and  _159
REMARK   68  A    between atoms: _159  and  _160
REMARK   69  A    between atoms: _159  and  _162
REMARK   70  A    between atoms: _162  and  _163
REMARK   71  A    between atoms: _165  and  _167
REMARK   72  A    between atoms: _167  and  _168
REMARK   73  A    between atoms: _170  and  _172
REMARK   74  A    between atoms: _172  and  _173
REMARK   75  A    between atoms: _172  and  _175
REMARK   76  A    between atoms: _175  and  _176
REMARK   77  A    between atoms: _179  and  _181
REMARK   78  A    between atoms: _181  and  _182
REMARK   79  A    between atoms: _185  and  _187
REMARK   80  A    between atoms: _187  and  _188
REMARK   81  A    between atoms: _187  and  _190
REMARK   82  A    between atoms: _190  and  _191
REMARK   83  A    between atoms: _197  and  _199
REMARK   84  A    between atoms: _199  and  _200
REMARK   85  A    between atoms: _199  and  _202
REMARK   86  A    between atoms: _202  and  _203
REMARK   87  A    between atoms: _206  and  _208
REMARK   88  A    between atoms: _208  and  _209
REMARK   89  A    between atoms: _208  and  _211
REMARK   90  A    between atoms: _211  and  _212
REMARK   91  A    between atoms: _217  and  _219
REMARK   92  A    between atoms: _219  and  _220
REMARK   93  A    between atoms: _222  and  _224
REMARK   94  A    between atoms: _224  and  _225
REMARK   95  A    between atoms: _224  and  _227
REMARK   96  A    between atoms: _227  and  _228
REMARK   97  A    between atoms: _231  and  _233
REMARK   98  A    between atoms: _233  and  _234
REMARK   99  A    between atoms: _233  and  _236
REMARK  100  A    between atoms: _236  and  _237
REMARK  101  A    between atoms: _240  and  _242
REMARK  102  A    between atoms: _242  and  _243
REMARK  103  A    between atoms: _246  and  _248
REMARK  104  A    between atoms: _248  and  _249
REMARK  105  A    between atoms: _248  and  _251
REMARK  106  A    between atoms: _254  and  _256
REMARK  107  A    between atoms: _256  and  _257
REMARK  108  A    between atoms: _256  and  _259
REMARK  109  A    between atoms: _259  and  _260
REMARK  110  A    between atoms: _260  and  _261
REMARK  111  A    between atoms: _264  and  _266
REMARK  112  A    between atoms: _266  and  _267
REMARK  113  A    between atoms: _266  and  _269
REMARK  114  A    between atoms: _269  and  _270
REMARK  115  A    between atoms: _270  and  _271
REMARK  116  A    between atoms: _273  and  _275
REMARK  117  A    between atoms: _275  and  _276
REMARK  118  A    between atoms: _275  and  _278
REMARK  119  A    between atoms: _278  and  _279
REMARK  120  A    between atoms: _279  and  _280
REMARK  121  A    between atoms: _283  and  _285
REMARK  122  A    between atoms: _285  and  _286
REMARK  123  A    between atoms: _289  and  _291
REMARK  124  A    between atoms: _291  and  _292
REMARK  125  A    between atoms: _291  and  _294
REMARK  126  A    between atoms: _294  and  _295
REMARK  127  A    between atoms: _295  and  _296
REMARK  128  A    between atoms: _296  and  _297
REMARK  129  A    between atoms: _306  and  _308
REMARK  130  A    between atoms: _308  and  _309
REMARK  131  A    between atoms: _312  and  _314
REMARK  132  A    between atoms: _314  and  _315
REMARK  133  A    between atoms: _314  and  _317
REMARK  134  A    between atoms: _317  and  _318
REMARK  135  A    between atoms: _321  and  _323
REMARK  136  A    between atoms: _323  and  _324
REMARK  137  A    between atoms: _323  and  _326
REMARK  138  A    between atoms: _326  and  _327
REMARK  139  A    between atoms: _329  and  _331
REMARK  140  A    between atoms: _331  and  _332
REMARK  141  A    between atoms: _331  and  _334
REMARK  142  A    between atoms: _334  and  _335
REMARK  143  A    between atoms: _338  and  _340
REMARK  144  A    between atoms: _340  and  _341
REMARK  145  A    between atoms: _340  and  _343
REMARK  146  A    between atoms: _346  and  _348
REMARK  147  A    between atoms: _348  and  _349
REMARK  148  A    between atoms: _352  and  _354
REMARK  149  A    between atoms: _354  and  _355
REMARK  150  A    between atoms: _354  and  _357
REMARK  151  A    between atoms: _357  and  _358
REMARK  152  A    between atoms: _361  and  _363
REMARK  153  A    between atoms: _363  and  _364
REMARK  154  A    between atoms: _363  and  _366
REMARK  155  A    between atoms: _366  and  _367
REMARK  156  A    between atoms: _367  and  _368
REMARK  157  A    between atoms: _373  and  _375
REMARK  158  A    between atoms: _375  and  _376
REMARK  159  A    between atoms: _375  and  _378
REMARK  160  A    between atoms: _378  and  _379
REMARK  161  A    between atoms: _381  and  _383
REMARK  162  A    between atoms: _383  and  _384
REMARK  163  A    between atoms: _383  and  _386
REMARK  164  A    between atoms: _386  and  _387
REMARK  165  A    between atoms: _392  and  _394
REMARK  166  A    between atoms: _394  and  _395
REMARK  167  A    between atoms: _394  and  _397
REMARK  168  A    between atoms: _397  and  _398
REMARK  169  A    between atoms: _400  and  _402
REMARK  170  A    between atoms: _402  and  _403
REMARK  171  A    between atoms: _402  and  _405
REMARK  172  A    between atoms: _405  and  _406
REMARK  173  A    between atoms: _412  and  _414
REMARK  174  A    between atoms: _414  and  _415
REMARK  175  A    between atoms: _414  and  _417
REMARK  176  A    between atoms: _417  and  _418
REMARK  177  A    between atoms: _421  and  _423
REMARK  178  A    between atoms: _423  and  _424
REMARK  179  A    between atoms: _423  and  _426
REMARK  180  A    between atoms: _426  and  _427
REMARK  181  A    between atoms: _430  and  _432
REMARK  182  A    between atoms: _432  and  _433
REMARK  183  A    between atoms: _436  and  _438
REMARK  184  A    between atoms: _438  and  _439
REMARK  185  A    between atoms: _438  and  _441
REMARK  186  A    between atoms: _441  and  _442
REMARK  187  A    between atoms: _445  and  _447
REMARK  188  A    between atoms: _447  and  _448
REMARK  189  A    between atoms: _447  and  _450
REMARK  190  A    between atoms: _453  and  _455
REMARK  191  A    between atoms: _455  and  _456
REMARK  192  A    between atoms: _459  and  _461
REMARK  193  A    between atoms: _461  and  _462
REMARK  194  A    between atoms: _461  and  _464
REMARK  195  A    between atoms: _464  and  _465
REMARK  196  A    between atoms: _471  and  _473
REMARK  197  A    between atoms: _473  and  _474
REMARK  198  A    between atoms: _476  and  _478
REMARK  199  A    between atoms: _478  and  _479
REMARK  200  A    between atoms: _478  and  _481
REMARK  201  A    between atoms: _481  and  _482
REMARK  202  A    between atoms: _487  and  _488
REMARK  203  A    between atoms: _490  and  _492
REMARK  204  A    between atoms: _492  and  _493
REMARK  205  A    between atoms: _492  and  _495
REMARK  206  A    between atoms: _495  and  _496
REMARK  207  A    between atoms: _500  and  _501
REMARK  208  A    between atoms: _506  and  _508
REMARK  209  A    between atoms: _508  and  _509
REMARK                            x       y       z     vdW  Elec       q    Type
REMARK                         _______ _______ _______ _____ _____    ______ ____
ROOT
ATOM      1  CA  PHE A   2     -41.535  -1.961   1.528  0.00  0.00    +0.153 C 
ENDROOT
BRANCH   1   4
ATOM      2  C   SER A   1     -43.304  -3.090   0.345  0.00  0.00    +0.241 C 
ATOM      3  O   SER A   1     -44.177  -2.376   0.874  0.00  0.00    -0.274 OA
ATOM      4  N   PHE A   2     -42.004  -2.941   0.585  0.00  0.00    -0.297 N 
ATOM      5  H   PHE A   2     -41.318  -3.541   0.084  0.00  0.00    +0.150 HD
BRANCH   2   6
ATOM      6  CA  SER A   1     -43.679  -4.231  -0.632  0.00  0.00    +0.174 C 
BRANCH   6   7
ATOM      7  N   SER A   1     -42.745  -4.258  -1.737  0.00  0.00    -0.236 NA
ATOM      8  H   SER A   1     -42.220  -5.131  -1.947  0.00  0.00    +0.142 HD
ENDBRANCH   6   7
BRANCH   6   9
ATOM      9  CB  SER A   1     -43.700  -5.587   0.089  0.00  0.00    +0.163 C 
BRANCH   9  10
ATOM     10  OG  SER A   1     -44.535  -5.564   1.232  0.00  0.00    -0.380 OA
ATOM     11  H   SER A   1     -44.205  -4.880   1.867  0.00  0.00    +0.211 HD
ENDBRANCH   9  10
ENDBRANCH   6   9
ENDBRANCH   2   6
ENDBRANCH   1   4
BRANCH   1  12
ATOM     12  C   PHE A   2     -41.926  -0.558   1.051  0.00  0.00    +0.241 C 
ATOM     13  O   PHE A   2     -42.518   0.194   1.822  0.00  0.00    -0.273 OA
ATOM     14  N   ASP A   3     -41.643  -0.229  -0.209  0.00  0.00    -0.298 N 
ATOM     15  H   ASP A   3     -41.173  -0.924  -0.824  0.00  0.00    +0.150 HD
BRANCH  14  16
ATOM     16  CA  ASP A   3     -41.981   1.093  -0.744  0.00  0.00    +0.148 C 
BRANCH  16  17
ATOM     17  C   ASP A   3     -43.477   1.359  -0.499  0.00  0.00    +0.227 C 
ATOM     18  O   ASP A   3     -43.865   2.449  -0.044  0.00  0.00    -0.286 OA
ENDBRANCH  16  17
BRANCH  16  19
ATOM     19  CB  ASP A   3     -41.646   1.200  -2.252  0.00  0.00    +0.142 C 
BRANCH  19  20
ATOM     20  CG  ASP A   3     -40.134   1.125  -2.552  0.00  0.00    +0.367 C 
ATOM     21  OD2 ASP A   3     -39.328   0.999  -1.605  0.00  0.00    -0.246 OA
ATOM     22  OD1 ASP A   3     -39.746   1.198  -3.753  0.00  0.00    -0.246 OA
ENDBRANCH  19  20
ENDBRANCH  16  19
ENDBRANCH  14  16
ENDBRANCH   1  12
BRANCH   1  23
ATOM     23  CB  PHE A   2     -40.038  -2.099   1.717  0.00  0.00    +0.055 C 
BRANCH  23  24
ATOM     24  CG  PHE A   2     -39.482  -1.179   2.736  0.00  0.00    -0.020 A 
ATOM     25  CD2 PHE A   2     -39.611  -1.463   4.077  0.00  0.00    -0.004 A 
ATOM     26  CE2 PHE A   2     -39.101  -0.595   5.034  0.00  0.00    -0.000 A 
ATOM     27  CZ  PHE A   2     -38.440   0.557   4.639  0.00  0.00    -0.000 A 
ATOM     28  CE1 PHE A   2     -38.305   0.846   3.301  0.00  0.00    -0.000 A 
ATOM     29  CD1 PHE A   2     -38.820  -0.023   2.352  0.00  0.00    -0.004 A 
ENDBRANCH  23  24
ENDBRANCH   1  23
TORSDOF 12
REMARK  Name = ../refined-set-2016/4f3c/4f3c_pocket.pdb
REMARK  209 active torsions:
REMARK  status: ('A' for Active; 'I' for Inactive)
REMARK    1  A    between atoms: _1  and  _3
REMARK    2  A    between atoms: _3  and  _4
REMARK    3  A    between atoms: _6  and  _8
REMARK    4  A    between atoms: _8  and  _9
REMARK    5  A    between atoms: _12  and  _14
REMARK    6  A    between atoms: _14  and  _15
REMARK    7  A    between atoms: _14  and  _17
REMARK    8  A    between atoms: _17  and  _18
REMARK    9  A    between atoms: _18  and  _19
REMARK   10  A    between atoms: _21  and  _23
REMARK   11  A    between atoms: _23  and  _24
REMARK   12  A    between atoms: _23  and  _26
REMARK   13  A    between atoms: _26  and  _27
REMARK   14  A    between atoms: _27  and  _28
REMARK   15  A    between atoms: _31  and  _33
REMARK   16  A    between atoms: _33  and  _34
REMARK   17  A    between atoms: _33  and  _36
REMARK   18  A    between atoms: _36  and  _37
REMARK   19  A    between atoms: _37  and  _38
REMARK   20  A    between atoms: _41  and  _43
REMARK   21  A    between atoms: _43  and  _44
REMARK   22  A    between atoms: _43  and  _46
REMARK   23  A    between atoms: _46  and  _47
REMARK   24  A    between atoms: _49  and  _51
REMARK   25  A    between atoms: _51  and  _52
REMARK   26  A    between atoms: _54  and  _56
REMARK   27  A    between atoms: _56  and  _57
REMARK   28  A    between atoms: _56  and  _59
REMARK   29  A    between atoms: _59  and  _60
REMARK   30  A    between atoms: _63  and  _65
REMARK   31  A    between atoms: _65  and  _66
REMARK   32  A    between atoms: _68  and  _70
REMARK   33  A    between atoms: _70  and  _71
REMARK   34  A    between atoms: _74  and  _76
REMARK   35  A    between atoms: _76  and  _77
REMARK   36  A    between atoms: _80  and  _82
REMARK   37  A    between atoms: _82  and  _83
REMARK   38  A    between atoms: _82  and  _85
REMARK   39  A    between atoms: _85  and  _86
REMARK   40  A    between atoms: _91  and  _93
REMARK   41  A    between atoms: _93  and  _94
REMARK   42  A    between atoms: _93  and  _96
REMARK   43  A    between atoms: _96  and  _97
REMARK   44  A    between atoms: _100  and  _102
REMARK   45  A    between atoms: _102  and  _103
REMARK   46  A    between atoms: _105  and  _107
REMARK   47  A    between atoms: _107  and  _108
REMARK   48  A    between atoms: _107  and  _110
REMARK   49  A    between atoms: _110  and  _111
REMARK   50  A    between atoms: _113  and  _115
REMARK   51  A    between atoms: _115  and  _116
REMARK   52  A    between atoms: _119  and  _121
REMARK   53  A    between atoms: _121  and  _122
REMARK   54  A    between atoms: _124  and  _126
REMARK   55  A    between atoms: _126  and  _127
REMARK   56  A    between atoms: _129  and  _131
REMARK   57  A    between atoms: _131  and  _132
REMARK   58  A    between atoms: _131  and  _134
REMARK   59  A    between atoms: _134  and  _135
REMARK   60  A    between atoms: _138  and  _140
REMARK   61  A    between atoms: _140  and  _141
REMARK   62  A    between atoms: _140  and  _143
REMARK   63  A    between atoms: _143  and  _144
REMARK   64  A    between atoms: _149  and  _151
REMARK   65  A    between atoms: _151  and  _152
REMARK   66  A    between atoms: _151  and  _154
REMARK   67  A    between atoms: _157  and  _159
REMARK   68  A    between atoms: _159  and  _160
REMARK   69  A    between atoms: _159  and  _162
REMARK   70  A    between atoms: _162  and  _163
REMARK   71  A    between atoms: _165  and  _167
REMARK   72  A    between atoms: _167  and  _168
REMARK   73  A    between atoms: _170  and  _172
REMARK   74  A    between atoms: _172  and  _173
REMARK   75  A    between atoms: _172  and  _175
REMARK   76  A    between atoms: _175  and  _176
REMARK   77  A    between atoms: _179  and  _181
REMARK   78  A    between atoms: _181  and  _182
REMARK   79  A    between atoms: _185  and  _187
REMARK   80  A    between atoms: _187  and  _188
REMARK   81  A    between atoms: _187  and  _190
REMARK   82  A    between atoms: _190  and  _191
REMARK   83  A    between atoms: _197  and  _199
REMARK   84  A    between atoms: _199  and  _200
REMARK   85  A    between atoms: _199  and  _202
REMARK   86  A    between atoms: _202  and  _203
REMARK   87  A    between atoms: _206  and  _208
REMARK   88  A    between atoms: _208  and  _209
REMARK   89  A    between atoms: _208  and  _211
REMARK   90  A    between atoms: _211  and  _212
REMARK   91  A    between atoms: _217  and  _219
REMARK   92  A    between atoms: _219  and  _220
REMARK   93  A    between atoms: _222  and  _224
REMARK   94  A    between atoms: _224  and  _225
REMARK   95  A    between atoms: _224  and  _227
REMARK   96  A    between atoms: _227  and  _228
REMARK   97  A    between atoms: _231  and  _233
REMARK   98  A    between atoms: _233  and  _234
REMARK   99  A    between atoms: _233  and  _236
REMARK  100  A    between atoms: _236  and  _237
REMARK  101  A    between atoms: _240  and  _242
REMARK  102  A    between atoms: _242  and  _243
REMARK  103  A    between atoms: _246  and  _248
REMARK  104  A    between atoms: _248  and  _249
REMARK  105  A    between atoms: _248  and  _251
REMARK  106  A    between atoms: _254  and  _256
REMARK  107  A    between atoms: _256  and  _257
REMARK  108  A    between atoms: _256  and  _259
REMARK  109  A    between atoms: _259  and  _260
REMARK  110  A    between atoms: _260  and  _261
REMARK  111  A    between atoms: _264  and  _266
REMARK  112  A    between atoms: _266  and  _267
REMARK  113  A    between atoms: _266  and  _269
REMARK  114  A    between atoms: _269  and  _270
REMARK  115  A    between atoms: _270  and  _271
REMARK  116  A    between atoms: _273  and  _275
REMARK  117  A    between atoms: _275  and  _276
REMARK  118  A    between atoms: _275  and  _278
REMARK  119  A    between atoms: _278  and  _279
REMARK  120  A    between atoms: _279  and  _280
REMARK  121  A    between atoms: _283  and  _285
REMARK  122  A    between atoms: _285  and  _286
REMARK  123  A    between atoms: _289  and  _291
REMARK  124  A    between atoms: _291  and  _292
REMARK  125  A    between atoms: _291  and  _294
REMARK  126  A    between atoms: _294  and  _295
REMARK  127  A    between atoms: _295  and  _296
REMARK  128  A    between atoms: _296  and  _297
REMARK  129  A    between atoms: _306  and  _308
REMARK  130  A    between atoms: _308  and  _309
REMARK  131  A    between atoms: _312  and  _314
REMARK  132  A    between atoms: _314  and  _315
REMARK  133  A    between atoms: _314  and  _317
REMARK  134  A    between atoms: _317  and  _318
REMARK  135  A    between atoms: _321  and  _323
REMARK  136  A    between atoms: _323  and  _324
REMARK  137  A    between atoms: _323  and  _326
REMARK  138  A    between atoms: _326  and  _327
REMARK  139  A    between atoms: _329  and  _331
REMARK  140  A    between atoms: _331  and  _332
REMARK  141  A    between atoms: _331  and  _334
REMARK  142  A    between atoms: _334  and  _335
REMARK  143  A    between atoms: _338  and  _340
REMARK  144  A    between atoms: _340  and  _341
REMARK  145  A    between atoms: _340  and  _343
REMARK  146  A    between atoms: _346  and  _348
REMARK  147  A    between atoms: _348  and  _349
REMARK  148  A    between atoms: _352  and  _354
REMARK  149  A    between atoms: _354  and  _355
REMARK  150  A    between atoms: _354  and  _357
REMARK  151  A    between atoms: _357  and  _358
REMARK  152  A    between atoms: _361  and  _363
REMARK  153  A    between atoms: _363  and  _364
REMARK  154  A    between atoms: _363  and  _366
REMARK  155  A    between atoms: _366  and  _367
REMARK  156  A    between atoms: _367  and  _368
REMARK  157  A    between atoms: _373  and  _375
REMARK  158  A    between atoms: _375  and  _376
REMARK  159  A    between atoms: _375  and  _378
REMARK  160  A    between atoms: _378  and  _379
REMARK  161  A    between atoms: _381  and  _383
REMARK  162  A    between atoms: _383  and  _384
REMARK  163  A    between atoms: _383  and  _386
REMARK  164  A    between atoms: _386  and  _387
REMARK  165  A    between atoms: _392  and  _394
REMARK  166  A    between atoms: _394  and  _395
REMARK  167  A    between atoms: _394  and  _397
REMARK  168  A    between atoms: _397  and  _398
REMARK  169  A    between atoms: _400  and  _402
REMARK  170  A    between atoms: _402  and  _403
REMARK  171  A    between atoms: _402  and  _405
REMARK  172  A    between atoms: _405  and  _406
REMARK  173  A    between atoms: _412  and  _414
REMARK  174  A    between atoms: _414  and  _415
REMARK  175  A    between atoms: _414  and  _417
REMARK  176  A    between atoms: _417  and  _418
REMARK  177  A    between atoms: _421  and  _423
REMARK  178  A    between atoms: _423  and  _424
REMARK  179  A    between atoms: _423  and  _426
REMARK  180  A    between atoms: _426  and  _427
REMARK  181  A    between atoms: _430  and  _432
REMARK  182  A    between atoms: _432  and  _433
REMARK  183  A    between atoms: _436  and  _438
REMARK  184  A    between atoms: _438  and  _439
REMARK  185  A    between atoms: _438  and  _441
REMARK  186  A    between atoms: _441  and  _442
REMARK  187  A    between atoms: _445  and  _447
REMARK  188  A    between atoms: _447  and  _448
REMARK  189  A    between atoms: _447  and  _450
REMARK  190  A    between atoms: _453  and  _455
REMARK  191  A    between atoms: _455  and  _456
REMARK  192  A    between atoms: _459  and  _461
REMARK  193  A    between atoms: _461  and  _462
REMARK  194  A    between atoms: _461  and  _464
REMARK  195  A    between atoms: _464  and  _465
REMARK  196  A    between atoms: _471  and  _473
REMARK  197  A    between atoms: _473  and  _474
REMARK  198  A    between atoms: _476  and  _478
REMARK  199  A    between atoms: _478  and  _479
REMARK  200  A    between atoms: _478  and  _481
REMARK  201  A    between atoms: _481  and  _482
REMARK  202  A    between atoms: _487  and  _488
REMARK  203  A    between atoms: _490  and  _492
REMARK  204  A    between atoms: _492  and  _493
REMARK  205  A    between atoms: _492  and  _495
REMARK  206  A    between atoms: _495  and  _496
REMARK  207  A    between atoms: _500  and  _501
REMARK  208  A    between atoms: _506  and  _508
REMARK  209  A    between atoms: _508  and  _509
REMARK                            x       y       z     vdW  Elec       q    Type
REMARK                         _______ _______ _______ _____ _____    ______ ____
ROOT
ATOM      1  CA  LEU A   1     -43.903   1.293   4.989  0.00  0.00    +0.133 C 
ENDROOT
BRANCH   1   2
ATOM      2  N   LEU A   1     -44.580   0.630   3.874  0.00  0.00    -0.239 NA
ATOM      3  H   LEU A   1     -44.160   0.659   2.923  0.00  0.00    +0.142 HD
ENDBRANCH   1   2
BRANCH   1   4
ATOM      4  C   LEU A   1     -44.849   2.245   5.716  0.00  0.00    +0.224 C 
ATOM      5  O   LEU A   1     -44.785   2.363   6.935  0.00  0.00    -0.287 OA
ENDBRANCH   1   4
BRANCH   1   6
ATOM      6  CB  LEU A   1     -42.659   2.062   4.514  0.00  0.00    +0.025 C 
BRANCH   6   7
ATOM      7  CG  LEU A   1     -41.941   2.892   5.568  0.00  0.00    +0.002 C 
ATOM      8  CD2 LEU A   1     -41.430   1.990   6.673  0.00  0.00    +0.000 C 
ATOM      9  CD1 LEU A   1     -40.797   3.710   4.988  0.00  0.00    +0.000 C 
ENDBRANCH   6   7
ENDBRANCH   1   6
TORSDOF 4
REMARK  Name = ../refined-set-2016/4f3c/4f3c_pocket.pdb
REMARK  209 active torsions:
REMARK  status: ('A' for Active; 'I' for Inactive)
REMARK    1  A    between atoms: _1  and  _3
REMARK    2  A    between atoms: _3  and  _4
REMARK    3  A    between atoms: _6  and  _8
REMARK    4  A    between atoms: _8  and  _9
REMARK    5  A    between atoms: _12  and  _14
REMARK    6  A    between atoms: _14  and  _15
REMARK    7  A    between atoms: _14  and  _17
REMARK    8  A    between atoms: _17  and  _18
REMARK    9  A    between atoms: _18  and  _19
REMARK   10  A    between atoms: _21  and  _23
REMARK   11  A    between atoms: _23  and  _24
REMARK   12  A    between atoms: _23  and  _26
REMARK   13  A    between atoms: _26  and  _27
REMARK   14  A    between atoms: _27  and  _28
REMARK   15  A    between atoms: _31  and  _33
REMARK   16  A    between atoms: _33  and  _34
REMARK   17  A    between atoms: _33  and  _36
REMARK   18  A    between atoms: _36  and  _37
REMARK   19  A    between atoms: _37  and  _38
REMARK   20  A    between atoms: _41  and  _43
REMARK   21  A    between atoms: _43  and  _44
REMARK   22  A    between atoms: _43  and  _46
REMARK   23  A    between atoms: _46  and  _47
REMARK   24  A    between atoms: _49  and  _51
REMARK   25  A    between atoms: _51  and  _52
REMARK   26  A    between atoms: _54  and  _56
REMARK   27  A    between atoms: _56  and  _57
REMARK   28  A    between atoms: _56  and  _59
REMARK   29  A    between atoms: _59  and  _60
REMARK   30  A    between atoms: _63  and  _65
REMARK   31  A    between atoms: _65  and  _66
REMARK   32  A    between atoms: _68  and  _70
REMARK   33  A    between atoms: _70  and  _71
REMARK   34  A    between atoms: _74  and  _76
REMARK   35  A    between atoms: _76  and  _77
REMARK   36  A    between atoms: _80  and  _82
REMARK   37  A    between atoms: _82  and  _83
REMARK   38  A    between atoms: _82  and  _85
REMARK   39  A    between atoms: _85  and  _86
REMARK   40  A    between atoms: _91  and  _93
REMARK   41  A    between atoms: _93  and  _94
REMARK   42  A    between atoms: _93  and  _96
REMARK   43  A    between atoms: _96  and  _97
REMARK   44  A    between atoms: _100  and  _102
REMARK   45  A    between atoms: _102  and  _103
REMARK   46  A    between atoms: _105  and  _107
REMARK   47  A    between atoms: _107  and  _108
REMARK   48  A    between atoms: _107  and  _110
REMARK   49  A    between atoms: _110  and  _111
REMARK   50  A    between atoms: _113  and  _115
REMARK   51  A    between atoms: _115  and  _116
REMARK   52  A    between atoms: _119  and  _121
REMARK   53  A    between atoms: _121  and  _122
REMARK   54  A    between atoms: _124  and  _126
REMARK   55  A    between atoms: _126  and  _127
REMARK   56  A    between atoms: _129  and  _131
REMARK   57  A    between atoms: _131  and  _132
REMARK   58  A    between atoms: _131  and  _134
REMARK   59  A    between atoms: _134  and  _135
REMARK   60  A    between atoms: _138  and  _140
REMARK   61  A    between atoms: _140  and  _141
REMARK   62  A    between atoms: _140  and  _143
REMARK   63  A    between atoms: _143  and  _144
REMARK   64  A    between atoms: _149  and  _151
REMARK   65  A    between atoms: _151  and  _152
REMARK   66  A    between atoms: _151  and  _154
REMARK   67  A    between atoms: _157  and  _159
REMARK   68  A    between atoms: _159  and  _160
REMARK   69  A    between atoms: _159  and  _162
REMARK   70  A    between atoms: _162  and  _163
REMARK   71  A    between atoms: _165  and  _167
REMARK   72  A    between atoms: _167  and  _168
REMARK   73  A    between atoms: _170  and  _172
REMARK   74  A    between atoms: _172  and  _173
REMARK   75  A    between atoms: _172  and  _175
REMARK   76  A    between atoms: _175  and  _176
REMARK   77  A    between atoms: _179  and  _181
REMARK   78  A    between atoms: _181  and  _182
REMARK   79  A    between atoms: _185  and  _187
REMARK   80  A    between atoms: _187  and  _188
REMARK   81  A    between atoms: _187  and  _190
REMARK   82  A    between atoms: _190  and  _191
REMARK   83  A    between atoms: _197  and  _199
REMARK   84  A    between atoms: _199  and  _200
REMARK   85  A    between atoms: _199  and  _202
REMARK   86  A    between atoms: _202  and  _203
REMARK   87  A    between atoms: _206  and  _208
REMARK   88  A    between atoms: _208  and  _209
REMARK   89  A    between atoms: _208  and  _211
REMARK   90  A    between atoms: _211  and  _212
REMARK   91  A    between atoms: _217  and  _219
REMARK   92  A    between atoms: _219  and  _220
REMARK   93  A    between atoms: _222  and  _224
REMARK   94  A    between atoms: _224  and  _225
REMARK   95  A    between atoms: _224  and  _227
REMARK   96  A    between atoms: _227  and  _228
REMARK   97  A    between atoms: _231  and  _233
REMARK   98  A    between atoms: _233  and  _234
REMARK   99  A    between atoms: _233  and  _236
REMARK  100  A    between atoms: _236  and  _237
REMARK  101  A    between atoms: _240  and  _242
REMARK  102  A    between atoms: _242  and  _243
REMARK  103  A    between atoms: _246  and  _248
REMARK  104  A    between atoms: _248  and  _249
REMARK  105  A    between atoms: _248  and  _251
REMARK  106  A    between atoms: _254  and  _256
REMARK  107  A    between atoms: _256  and  _257
REMARK  108  A    between atoms: _256  and  _259
REMARK  109  A    between atoms: _259  and  _260
REMARK  110  A    between atoms: _260  and  _261
REMARK  111  A    between atoms: _264  and  _266
REMARK  112  A    between atoms: _266  and  _267
REMARK  113  A    between atoms: _266  and  _269
REMARK  114  A    between atoms: _269  and  _270
REMARK  115  A    between atoms: _270  and  _271
REMARK  116  A    between atoms: _273  and  _275
REMARK  117  A    between atoms: _275  and  _276
REMARK  118  A    between atoms: _275  and  _278
REMARK  119  A    between atoms: _278  and  _279
REMARK  120  A    between atoms: _279  and  _280
REMARK  121  A    between atoms: _283  and  _285
REMARK  122  A    between atoms: _285  and  _286
REMARK  123  A    between atoms: _289  and  _291
REMARK  124  A    between atoms: _291  and  _292
REMARK  125  A    between atoms: _291  and  _294
REMARK  126  A    between atoms: _294  and  _295
REMARK  127  A    between atoms: _295  and  _296
REMARK  128  A    between atoms: _296  and  _297
REMARK  129  A    between atoms: _306  and  _308
REMARK  130  A    between atoms: _308  and  _309
REMARK  131  A    between atoms: _312  and  _314
REMARK  132  A    between atoms: _314  and  _315
REMARK  133  A    between atoms: _314  and  _317
REMARK  134  A    between atoms: _317  and  _318
REMARK  135  A    between atoms: _321  and  _323
REMARK  136  A    between atoms: _323  and  _324
REMARK  137  A    between atoms: _323  and  _326
REMARK  138  A    between atoms: _326  and  _327
REMARK  139  A    between atoms: _329  and  _331
REMARK  140  A    between atoms: _331  and  _332
REMARK  141  A    between atoms: _331  and  _334
REMARK  142  A    between atoms: _334  and  _335
REMARK  143  A    between atoms: _338  and  _340
REMARK  144  A    between atoms: _340  and  _341
REMARK  145  A    between atoms: _340  and  _343
REMARK  146  A    between atoms: _346  and  _348
REMARK  147  A    between atoms: _348  and  _349
REMARK  148  A    between atoms: _352  and  _354
REMARK  149  A    between atoms: _354  and  _355
REMARK  150  A    between atoms: _354  and  _357
REMARK  151  A    between atoms: _357  and  _358
REMARK  152  A    between atoms: _361  and  _363
REMARK  153  A    between atoms: _363  and  _364
REMARK  154  A    between atoms: _363  and  _366
REMARK  155  A    between atoms: _366  and  _367
REMARK  156  A    between atoms: _367  and  _368
REMARK  157  A    between atoms: _373  and  _375
REMARK  158  A    between atoms: _375  and  _376
REMARK  159  A    between atoms: _375  and  _378
REMARK  160  A    between atoms: _378  and  _379
REMARK  161  A    between atoms: _381  and  _383
REMARK  162  A    between atoms: _383  and  _384
REMARK  163  A    between atoms: _383  and  _386
REMARK  164  A    between atoms: _386  and  _387
REMARK  165  A    between atoms: _392  and  _394
REMARK  166  A    between atoms: _394  and  _395
REMARK  167  A    between atoms: _394  and  _397
REMARK  168  A    between atoms: _397  and  _398
REMARK  169  A    between atoms: _400  and  _402
REMARK  170  A    between atoms: _402  and  _403
REMARK  171  A    between atoms: _402  and  _405
REMARK  172  A    between atoms: _405  and  _406
REMARK  173  A    between atoms: _412  and  _414
REMARK  174  A    between atoms: _414  and  _415
REMARK  175  A    between atoms: _414  and  _417
REMARK  176  A    between atoms: _417  and  _418
REMARK  177  A    between atoms: _421  and  _423
REMARK  178  A    between atoms: _423  and  _424
REMARK  179  A    between atoms: _423  and  _426
REMARK  180  A    between atoms: _426  and  _427
REMARK  181  A    between atoms: _430  and  _432
REMARK  182  A    between atoms: _432  and  _433
REMARK  183  A    between atoms: _436  and  _438
REMARK  184  A    between atoms: _438  and  _439
REMARK  185  A    between atoms: _438  and  _441
REMARK  186  A    between atoms: _441  and  _442
REMARK  187  A    between atoms: _445  and  _447
REMARK  188  A    between atoms: _447  and  _448
REMARK  189  A    between atoms: _447  and  _450
REMARK  190  A    between atoms: _453  and  _455
REMARK  191  A    between atoms: _455  and  _456
REMARK  192  A    between atoms: _459  and  _461
REMARK  193  A    between atoms: _461  and  _462
REMARK  194  A    between atoms: _461  and  _464
REMARK  195  A    between atoms: _464  and  _465
REMARK  196  A    between atoms: _471  and  _473
REMARK  197  A    between atoms: _473  and  _474
REMARK  198  A    between atoms: _476  and  _478
REMARK  199  A    between atoms: _478  and  _479
REMARK  200  A    between atoms: _478  and  _481
REMARK  201  A    between atoms: _481  and  _482
REMARK  202  A    between atoms: _487  and  _488
REMARK  203  A    between atoms: _490  and  _492
REMARK  204  A    between atoms: _492  and  _493
REMARK  205  A    between atoms: _492  and  _495
REMARK  206  A    between atoms: _495  and  _496
REMARK  207  A    between atoms: _500  and  _501
REMARK  208  A    between atoms: _506  and  _508
REMARK  209  A    between atoms: _508  and  _509
REMARK                            x       y       z     vdW  Elec       q    Type
REMARK                         _______ _______ _______ _____ _____    ______ ____
ROOT
ATOM      1  CA  ALA A   1     -46.272  -0.205   9.093  0.00  0.00    +0.133 C 
ATOM      2  CB  ALA A   1     -44.987  -0.884   8.623  0.00  0.00    +0.027 C 
ENDROOT
BRANCH   1   3
ATOM      3  N   ALA A   1     -47.057   0.275   7.959  0.00  0.00    -0.239 NA
ATOM      4  H   ALA A   1     -46.659   0.221   7.000  0.00  0.00    +0.142 HD
ENDBRANCH   1   3
BRANCH   1   5
ATOM      5  C   ALA A   1     -45.961   0.924  10.071  0.00  0.00    +0.224 C 
ATOM      6  O   ALA A   1     -46.002   0.716  11.277  0.00  0.00    -0.287 OA
ENDBRANCH   1   5
TORSDOF 2
REMARK  Name = ../refined-set-2016/4f3c/4f3c_pocket.pdb
REMARK  209 active torsions:
REMARK  status: ('A' for Active; 'I' for Inactive)
REMARK    1  A    between atoms: _1  and  _3
REMARK    2  A    between atoms: _3  and  _4
REMARK    3  A    between atoms: _6  and  _8
REMARK    4  A    between atoms: _8  and  _9
REMARK    5  A    between atoms: _12  and  _14
REMARK    6  A    between atoms: _14  and  _15
REMARK    7  A    between atoms: _14  and  _17
REMARK    8  A    between atoms: _17  and  _18
REMARK    9  A    between atoms: _18  and  _19
REMARK   10  A    between atoms: _21  and  _23
REMARK   11  A    between atoms: _23  and  _24
REMARK   12  A    between atoms: _23  and  _26
REMARK   13  A    between atoms: _26  and  _27
REMARK   14  A    between atoms: _27  and  _28
REMARK   15  A    between atoms: _31  and  _33
REMARK   16  A    between atoms: _33  and  _34
REMARK   17  A    between atoms: _33  and  _36
REMARK   18  A    between atoms: _36  and  _37
REMARK   19  A    between atoms: _37  and  _38
REMARK   20  A    between atoms: _41  and  _43
REMARK   21  A    between atoms: _43  and  _44
REMARK   22  A    between atoms: _43  and  _46
REMARK   23  A    between atoms: _46  and  _47
REMARK   24  A    between atoms: _49  and  _51
REMARK   25  A    between atoms: _51  and  _52
REMARK   26  A    between atoms: _54  and  _56
REMARK   27  A    between atoms: _56  and  _57
REMARK   28  A    between atoms: _56  and  _59
REMARK   29  A    between atoms: _59  and  _60
REMARK   30  A    between atoms: _63  and  _65
REMARK   31  A    between atoms: _65  and  _66
REMARK   32  A    between atoms: _68  and  _70
REMARK   33  A    between atoms: _70  and  _71
REMARK   34  A    between atoms: _74  and  _76
REMARK   35  A    between atoms: _76  and  _77
REMARK   36  A    between atoms: _80  and  _82
REMARK   37  A    between atoms: _82  and  _83
REMARK   38  A    between atoms: _82  and  _85
REMARK   39  A    between atoms: _85  and  _86
REMARK   40  A    between atoms: _91  and  _93
REMARK   41  A    between atoms: _93  and  _94
REMARK   42  A    between atoms: _93  and  _96
REMARK   43  A    between atoms: _96  and  _97
REMARK   44  A    between atoms: _100  and  _102
REMARK   45  A    between atoms: _102  and  _103
REMARK   46  A    between atoms: _105  and  _107
REMARK   47  A    between atoms: _107  and  _108
REMARK   48  A    between atoms: _107  and  _110
REMARK   49  A    between atoms: _110  and  _111
REMARK   50  A    between atoms: _113  and  _115
REMARK   51  A    between atoms: _115  and  _116
REMARK   52  A    between atoms: _119  and  _121
REMARK   53  A    between atoms: _121  and  _122
REMARK   54  A    between atoms: _124  and  _126
REMARK   55  A    between atoms: _126  and  _127
REMARK   56  A    between atoms: _129  and  _131
REMARK   57  A    between atoms: _131  and  _132
REMARK   58  A    between atoms: _131  and  _134
REMARK   59  A    between atoms: _134  and  _135
REMARK   60  A    between atoms: _138  and  _140
REMARK   61  A    between atoms: _140  and  _141
REMARK   62  A    between atoms: _140  and  _143
REMARK   63  A    between atoms: _143  and  _144
REMARK   64  A    between atoms: _149  and  _151
REMARK   65  A    between atoms: _151  and  _152
REMARK   66  A    between atoms: _151  and  _154
REMARK   67  A    between atoms: _157  and  _159
REMARK   68  A    between atoms: _159  and  _160
REMARK   69  A    between atoms: _159  and  _162
REMARK   70  A    between atoms: _162  and  _163
REMARK   71  A    between atoms: _165  and  _167
REMARK   72  A    between atoms: _167  and  _168
REMARK   73  A    between atoms: _170  and  _172
REMARK   74  A    between atoms: _172  and  _173
REMARK   75  A    between atoms: _172  and  _175
REMARK   76  A    between atoms: _175  and  _176
REMARK   77  A    between atoms: _179  and  _181
REMARK   78  A    between atoms: _181  and  _182
REMARK   79  A    between atoms: _185  and  _187
REMARK   80  A    between atoms: _187  and  _188
REMARK   81  A    between atoms: _187  and  _190
REMARK   82  A    between atoms: _190  and  _191
REMARK   83  A    between atoms: _197  and  _199
REMARK   84  A    between atoms: _199  and  _200
REMARK   85  A    between atoms: _199  and  _202
REMARK   86  A    between atoms: _202  and  _203
REMARK   87  A    between atoms: _206  and  _208
REMARK   88  A    between atoms: _208  and  _209
REMARK   89  A    between atoms: _208  and  _211
REMARK   90  A    between atoms: _211  and  _212
REMARK   91  A    between atoms: _217  and  _219
REMARK   92  A    between atoms: _219  and  _220
REMARK   93  A    between atoms: _222  and  _224
REMARK   94  A    between atoms: _224  and  _225
REMARK   95  A    between atoms: _224  and  _227
REMARK   96  A    between atoms: _227  and  _228
REMARK   97  A    between atoms: _231  and  _233
REMARK   98  A    between atoms: _233  and  _234
REMARK   99  A    between atoms: _233  and  _236
REMARK  100  A    between atoms: _236  and  _237
REMARK  101  A    between atoms: _240  and  _242
REMARK  102  A    between atoms: _242  and  _243
REMARK  103  A    between atoms: _246  and  _248
REMARK  104  A    between atoms: _248  and  _249
REMARK  105  A    between atoms: _248  and  _251
REMARK  106  A    between atoms: _254  and  _256
REMARK  107  A    between atoms: _256  and  _257
REMARK  108  A    between atoms: _256  and  _259
REMARK  109  A    between atoms: _259  and  _260
REMARK  110  A    between atoms: _260  and  _261
REMARK  111  A    between atoms: _264  and  _266
REMARK  112  A    between atoms: _266  and  _267
REMARK  113  A    between atoms: _266  and  _269
REMARK  114  A    between atoms: _269  and  _270
REMARK  115  A    between atoms: _270  and  _271
REMARK  116  A    between atoms: _273  and  _275
REMARK  117  A    between atoms: _275  and  _276
REMARK  118  A    between atoms: _275  and  _278
REMARK  119  A    between atoms: _278  and  _279
REMARK  120  A    between atoms: _279  and  _280
REMARK  121  A    between atoms: _283  and  _285
REMARK  122  A    between atoms: _285  and  _286
REMARK  123  A    between atoms: _289  and  _291
REMARK  124  A    between atoms: _291  and  _292
REMARK  125  A    between atoms: _291  and  _294
REMARK  126  A    between atoms: _294  and  _295
REMARK  127  A    between atoms: _295  and  _296
REMARK  128  A    between atoms: _296  and  _297
REMARK  129  A    between atoms: _306  and  _308
REMARK  130  A    between atoms: _308  and  _309
REMARK  131  A    between atoms: _312  and  _314
REMARK  132  A    between atoms: _314  and  _315
REMARK  133  A    between atoms: _314  and  _317
REMARK  134  A    between atoms: _317  and  _318
REMARK  135  A    between atoms: _321  and  _323
REMARK  136  A    between atoms: _323  and  _324
REMARK  137  A    between atoms: _323  and  _326
REMARK  138  A    between atoms: _326  and  _327
REMARK  139  A    between atoms: _329  and  _331
REMARK  140  A    between atoms: _331  and  _332
REMARK  141  A    between atoms: _331  and  _334
REMARK  142  A    between atoms: _334  and  _335
REMARK  143  A    between atoms: _338  and  _340
REMARK  144  A    between atoms: _340  and  _341
REMARK  145  A    between atoms: _340  and  _343
REMARK  146  A    between atoms: _346  and  _348
REMARK  147  A    between atoms: _348  and  _349
REMARK  148  A    between atoms: _352  and  _354
REMARK  149  A    between atoms: _354  and  _355
REMARK  150  A    between atoms: _354  and  _357
REMARK  151  A    between atoms: _357  and  _358
REMARK  152  A    between atoms: _361  and  _363
REMARK  153  A    between atoms: _363  and  _364
REMARK  154  A    between atoms: _363  and  _366
REMARK  155  A    between atoms: _366  and  _367
REMARK  156  A    between atoms: _367  and  _368
REMARK  157  A    between atoms: _373  and  _375
REMARK  158  A    between atoms: _375  and  _376
REMARK  159  A    between atoms: _375  and  _378
REMARK  160  A    between atoms: _378  and  _379
REMARK  161  A    between atoms: _381  and  _383
REMARK  162  A    between atoms: _383  and  _384
REMARK  163  A    between atoms: _383  and  _386
REMARK  164  A    between atoms: _386  and  _387
REMARK  165  A    between atoms: _392  and  _394
REMARK  166  A    between atoms: _394  and  _395
REMARK  167  A    between atoms: _394  and  _397
REMARK  168  A    between atoms: _397  and  _398
REMARK  169  A    between atoms: _400  and  _402
REMARK  170  A    between atoms: _402  and  _403
REMARK  171  A    between atoms: _402  and  _405
REMARK  172  A    between atoms: _405  and  _406
REMARK  173  A    between atoms: _412  and  _414
REMARK  174  A    between atoms: _414  and  _415
REMARK  175  A    between atoms: _414  and  _417
REMARK  176  A    between atoms: _417  and  _418
REMARK  177  A    between atoms: _421  and  _423
REMARK  178  A    between atoms: _423  and  _424
REMARK  179  A    between atoms: _423  and  _426
REMARK  180  A    between atoms: _426  and  _427
REMARK  181  A    between atoms: _430  and  _432
REMARK  182  A    between atoms: _432  and  _433
REMARK  183  A    between atoms: _436  and  _438
REMARK  184  A    between atoms: _438  and  _439
REMARK  185  A    between atoms: _438  and  _441
REMARK  186  A    between atoms: _441  and  _442
REMARK  187  A    between atoms: _445  and  _447
REMARK  188  A    between atoms: _447  and  _448
REMARK  189  A    between atoms: _447  and  _450
REMARK  190  A    between atoms: _453  and  _455
REMARK  191  A    between atoms: _455  and  _456
REMARK  192  A    between atoms: _459  and  _461
REMARK  193  A    between atoms: _461  and  _462
REMARK  194  A    between atoms: _461  and  _464
REMARK  195  A    between atoms: _464  and  _465
REMARK  196  A    between atoms: _471  and  _473
REMARK  197  A    between atoms: _473  and  _474
REMARK  198  A    between atoms: _476  and  _478
REMARK  199  A    between atoms: _478  and  _479
REMARK  200  A    between atoms: _478  and  _481
REMARK  201  A    between atoms: _481  and  _482
REMARK  202  A    between atoms: _487  and  _488
REMARK  203  A    between atoms: _490  and  _492
REMARK  204  A    between atoms: _492  and  _493
REMARK  205  A    between atoms: _492  and  _495
REMARK  206  A    between atoms: _495  and  _496
REMARK  207  A    between atoms: _500  and  _501
REMARK  208  A    between atoms: _506  and  _508
REMARK  209  A    between atoms: _508  and  _509
REMARK                            x       y       z     vdW  Elec       q    Type
REMARK                         _______ _______ _______ _____ _____    ______ ____
ROOT
ATOM      1  C   ASP A   1     -27.672  -4.646   1.715  0.00  0.00    +0.239 C 
ATOM      2  O   ASP A   1     -28.632  -5.252   2.170  0.00  0.00    -0.274 OA
ATOM      3  N   VAL A   2     -27.765  -3.458   1.135  0.00  0.00    -0.298 N 
ATOM      4  H   VAL A   2     -26.888  -2.955   0.891  0.00  0.00    +0.150 HD
ENDROOT
BRANCH   1   5
ATOM      5  CA  ASP A   1     -26.273  -5.221   1.774  0.00  0.00    +0.156 C 
BRANCH   5   6
ATOM      6  N   ASP A   1     -25.610  -4.988   3.071  0.00  0.00    -0.238 NA
ATOM      7  H   ASP A   1     -26.174  -5.013   3.944  0.00  0.00    +0.142 HD
ENDBRANCH   5   6
BRANCH   5   8
ATOM      8  CB  ASP A   1     -26.301  -6.722   1.438  0.00  0.00    +0.140 C 
BRANCH   8   9
ATOM      9  CG  ASP A   1     -26.849  -7.012   0.035  0.00  0.00    +0.367 C 
ATOM     10  OD2 ASP A   1     -26.862  -8.205  -0.343  0.00  0.00    -0.246 OA
ATOM     11  OD1 ASP A   1     -27.281  -6.086  -0.682  0.00  0.00    -0.246 OA
ENDBRANCH   8   9
ENDBRANCH   5   8
ENDBRANCH   1   5
BRANCH   3  12
ATOM     12  CA  VAL A   2     -29.034  -2.826   0.824  0.00  0.00    +0.137 C 
BRANCH  12  13
ATOM     13  CB  VAL A   2     -29.249  -1.541   1.656  0.00  0.00    +0.026 C 
ATOM     14  CG2 VAL A   2     -28.962  -1.794   3.108  0.00  0.00    +0.002 C 
ATOM     15  CG1 VAL A   2     -30.692  -1.080   1.565  0.00  0.00    +0.002 C 
ENDBRANCH  12  13
BRANCH  12  16
ATOM     16  C   VAL A   2     -29.031  -2.552  -0.691  0.00  0.00    +0.227 C 
ATOM     17  O   VAL A   2     -29.630  -1.583  -1.171  0.00  0.00    -0.286 OA
ENDBRANCH  12  16
ENDBRANCH   3  12
TORSDOF 7
REMARK  Name = ../refined-set-2016/4f3c/4f3c_pocket.pdb
REMARK  209 active torsions:
REMARK  status: ('A' for Active; 'I' for Inactive)
REMARK    1  A    between atoms: _1  and  _3
REMARK    2  A    between atoms: _3  and  _4
REMARK    3  A    between atoms: _6  and  _8
REMARK    4  A    between atoms: _8  and  _9
REMARK    5  A    between atoms: _12  and  _14
REMARK    6  A    between atoms: _14  and  _15
REMARK    7  A    between atoms: _14  and  _17
REMARK    8  A    between atoms: _17  and  _18
REMARK    9  A    between atoms: _18  and  _19
REMARK   10  A    between atoms: _21  and  _23
REMARK   11  A    between atoms: _23  and  _24
REMARK   12  A    between atoms: _23  and  _26
REMARK   13  A    between atoms: _26  and  _27
REMARK   14  A    between atoms: _27  and  _28
REMARK   15  A    between atoms: _31  and  _33
REMARK   16  A    between atoms: _33  and  _34
REMARK   17  A    between atoms: _33  and  _36
REMARK   18  A    between atoms: _36  and  _37
REMARK   19  A    between atoms: _37  and  _38
REMARK   20  A    between atoms: _41  and  _43
REMARK   21  A    between atoms: _43  and  _44
REMARK   22  A    between atoms: _43  and  _46
REMARK   23  A    between atoms: _46  and  _47
REMARK   24  A    between atoms: _49  and  _51
REMARK   25  A    between atoms: _51  and  _52
REMARK   26  A    between atoms: _54  and  _56
REMARK   27  A    between atoms: _56  and  _57
REMARK   28  A    between atoms: _56  and  _59
REMARK   29  A    between atoms: _59  and  _60
REMARK   30  A    between atoms: _63  and  _65
REMARK   31  A    between atoms: _65  and  _66
REMARK   32  A    between atoms: _68  and  _70
REMARK   33  A    between atoms: _70  and  _71
REMARK   34  A    between atoms: _74  and  _76
REMARK   35  A    between atoms: _76  and  _77
REMARK   36  A    between atoms: _80  and  _82
REMARK   37  A    between atoms: _82  and  _83
REMARK   38  A    between atoms: _82  and  _85
REMARK   39  A    between atoms: _85  and  _86
REMARK   40  A    between atoms: _91  and  _93
REMARK   41  A    between atoms: _93  and  _94
REMARK   42  A    between atoms: _93  and  _96
REMARK   43  A    between atoms: _96  and  _97
REMARK   44  A    between atoms: _100  and  _102
REMARK   45  A    between atoms: _102  and  _103
REMARK   46  A    between atoms: _105  and  _107
REMARK   47  A    between atoms: _107  and  _108
REMARK   48  A    between atoms: _107  and  _110
REMARK   49  A    between atoms: _110  and  _111
REMARK   50  A    between atoms: _113  and  _115
REMARK   51  A    between atoms: _115  and  _116
REMARK   52  A    between atoms: _119  and  _121
REMARK   53  A    between atoms: _121  and  _122
REMARK   54  A    between atoms: _124  and  _126
REMARK   55  A    between atoms: _126  and  _127
REMARK   56  A    between atoms: _129  and  _131
REMARK   57  A    between atoms: _131  and  _132
REMARK   58  A    between atoms: _131  and  _134
REMARK   59  A    between atoms: _134  and  _135
REMARK   60  A    between atoms: _138  and  _140
REMARK   61  A    between atoms: _140  and  _141
REMARK   62  A    between atoms: _140  and  _143
REMARK   63  A    between atoms: _143  and  _144
REMARK   64  A    between atoms: _149  and  _151
REMARK   65  A    between atoms: _151  and  _152
REMARK   66  A    between atoms: _151  and  _154
REMARK   67  A    between atoms: _157  and  _159
REMARK   68  A    between atoms: _159  and  _160
REMARK   69  A    between atoms: _159  and  _162
REMARK   70  A    between atoms: _162  and  _163
REMARK   71  A    between atoms: _165  and  _167
REMARK   72  A    between atoms: _167  and  _168
REMARK   73  A    between atoms: _170  and  _172
REMARK   74  A    between atoms: _172  and  _173
REMARK   75  A    between atoms: _172  and  _175
REMARK   76  A    between atoms: _175  and  _176
REMARK   77  A    between atoms: _179  and  _181
REMARK   78  A    between atoms: _181  and  _182
REMARK   79  A    between atoms: _185  and  _187
REMARK   80  A    between atoms: _187  and  _188
REMARK   81  A    between atoms: _187  and  _190
REMARK   82  A    between atoms: _190  and  _191
REMARK   83  A    between atoms: _197  and  _199
REMARK   84  A    between atoms: _199  and  _200
REMARK   85  A    between atoms: _199  and  _202
REMARK   86  A    between atoms: _202  and  _203
REMARK   87  A    between atoms: _206  and  _208
REMARK   88  A    between atoms: _208  and  _209
REMARK   89  A    between atoms: _208  and  _211
REMARK   90  A    between atoms: _211  and  _212
REMARK   91  A    between atoms: _217  and  _219
REMARK   92  A    between atoms: _219  and  _220
REMARK   93  A    between atoms: _222  and  _224
REMARK   94  A    between atoms: _224  and  _225
REMARK   95  A    between atoms: _224  and  _227
REMARK   96  A    between atoms: _227  and  _228
REMARK   97  A    between atoms: _231  and  _233
REMARK   98  A    between atoms: _233  and  _234
REMARK   99  A    between atoms: _233  and  _236
REMARK  100  A    between atoms: _236  and  _237
REMARK  101  A    between atoms: _240  and  _242
REMARK  102  A    between atoms: _242  and  _243
REMARK  103  A    between atoms: _246  and  _248
REMARK  104  A    between atoms: _248  and  _249
REMARK  105  A    between atoms: _248  and  _251
REMARK  106  A    between atoms: _254  and  _256
REMARK  107  A    between atoms: _256  and  _257
REMARK  108  A    between atoms: _256  and  _259
REMARK  109  A    between atoms: _259  and  _260
REMARK  110  A    between atoms: _260  and  _261
REMARK  111  A    between atoms: _264  and  _266
REMARK  112  A    between atoms: _266  and  _267
REMARK  113  A    between atoms: _266  and  _269
REMARK  114  A    between atoms: _269  and  _270
REMARK  115  A    between atoms: _270  and  _271
REMARK  116  A    between atoms: _273  and  _275
REMARK  117  A    between atoms: _275  and  _276
REMARK  118  A    between atoms: _275  and  _278
REMARK  119  A    between atoms: _278  and  _279
REMARK  120  A    between atoms: _279  and  _280
REMARK  121  A    between atoms: _283  and  _285
REMARK  122  A    between atoms: _285  and  _286
REMARK  123  A    between atoms: _289  and  _291
REMARK  124  A    between atoms: _291  and  _292
REMARK  125  A    between atoms: _291  and  _294
REMARK  126  A    between atoms: _294  and  _295
REMARK  127  A    between atoms: _295  and  _296
REMARK  128  A    between atoms: _296  and  _297
REMARK  129  A    between atoms: _306  and  _308
REMARK  130  A    between atoms: _308  and  _309
REMARK  131  A    between atoms: _312  and  _314
REMARK  132  A    between atoms: _314  and  _315
REMARK  133  A    between atoms: _314  and  _317
REMARK  134  A    between atoms: _317  and  _318
REMARK  135  A    between atoms: _321  and  _323
REMARK  136  A    between atoms: _323  and  _324
REMARK  137  A    between atoms: _323  and  _326
REMARK  138  A    between atoms: _326  and  _327
REMARK  139  A    between atoms: _329  and  _331
REMARK  140  A    between atoms: _331  and  _332
REMARK  141  A    between atoms: _331  and  _334
REMARK  142  A    between atoms: _334  and  _335
REMARK  143  A    between atoms: _338  and  _340
REMARK  144  A    between atoms: _340  and  _341
REMARK  145  A    between atoms: _340  and  _343
REMARK  146  A    between atoms: _346  and  _348
REMARK  147  A    between atoms: _348  and  _349
REMARK  148  A    between atoms: _352  and  _354
REMARK  149  A    between atoms: _354  and  _355
REMARK  150  A    between atoms: _354  and  _357
REMARK  151  A    between atoms: _357  and  _358
REMARK  152  A    between atoms: _361  and  _363
REMARK  153  A    between atoms: _363  and  _364
REMARK  154  A    between atoms: _363  and  _366
REMARK  155  A    between atoms: _366  and  _367
REMARK  156  A    between atoms: _367  and  _368
REMARK  157  A    between atoms: _373  and  _375
REMARK  158  A    between atoms: _375  and  _376
REMARK  159  A    between atoms: _375  and  _378
REMARK  160  A    between atoms: _378  and  _379
REMARK  161  A    between atoms: _381  and  _383
REMARK  162  A    between atoms: _383  and  _384
REMARK  163  A    between atoms: _383  and  _386
REMARK  164  A    between atoms: _386  and  _387
REMARK  165  A    between atoms: _392  and  _394
REMARK  166  A    between atoms: _394  and  _395
REMARK  167  A    between atoms: _394  and  _397
REMARK  168  A    between atoms: _397  and  _398
REMARK  169  A    between atoms: _400  and  _402
REMARK  170  A    between atoms: _402  and  _403
REMARK  171  A    between atoms: _402  and  _405
REMARK  172  A    between atoms: _405  and  _406
REMARK  173  A    between atoms: _412  and  _414
REMARK  174  A    between atoms: _414  and  _415
REMARK  175  A    between atoms: _414  and  _417
REMARK  176  A    between atoms: _417  and  _418
REMARK  177  A    between atoms: _421  and  _423
REMARK  178  A    between atoms: _423  and  _424
REMARK  179  A    between atoms: _423  and  _426
REMARK  180  A    between atoms: _426  and  _427
REMARK  181  A    between atoms: _430  and  _432
REMARK  182  A    between atoms: _432  and  _433
REMARK  183  A    between atoms: _436  and  _438
REMARK  184  A    between atoms: _438  and  _439
REMARK  185  A    between atoms: _438  and  _441
REMARK  186  A    between atoms: _441  and  _442
REMARK  187  A    between atoms: _445  and  _447
REMARK  188  A    between atoms: _447  and  _448
REMARK  189  A    between atoms: _447  and  _450
REMARK  190  A    between atoms: _453  and  _455
REMARK  191  A    between atoms: _455  and  _456
REMARK  192  A    between atoms: _459  and  _461
REMARK  193  A    between atoms: _461  and  _462
REMARK  194  A    between atoms: _461  and  _464
REMARK  195  A    between atoms: _464  and  _465
REMARK  196  A    between atoms: _471  and  _473
REMARK  197  A    between atoms: _473  and  _474
REMARK  198  A    between atoms: _476  and  _478
REMARK  199  A    between atoms: _478  and  _479
REMARK  200  A    between atoms: _478  and  _481
REMARK  201  A    between atoms: _481  and  _482
REMARK  202  A    between atoms: _487  and  _488
REMARK  203  A    between atoms: _490  and  _492
REMARK  204  A    between atoms: _492  and  _493
REMARK  205  A    between atoms: _492  and  _495
REMARK  206  A    between atoms: _495  and  _496
REMARK  207  A    between atoms: _500  and  _501
REMARK  208  A    between atoms: _506  and  _508
REMARK  209  A    between atoms: _508  and  _509
REMARK                            x       y       z     vdW  Elec       q    Type
REMARK                         _______ _______ _______ _____ _____    ______ ____
ROOT
ATOM      1  C   PHE A   2     -31.640   0.513  -3.854  0.00  0.00    +0.241 C 
ATOM      2  O   PHE A   2     -31.715   1.745  -3.861  0.00  0.00    -0.273 OA
ATOM      3  N   GLY A   3     -30.714  -0.166  -4.530  0.00  0.00    -0.295 N 
ATOM      4  H   GLY A   3     -30.656  -1.196  -4.398  0.00  0.00    +0.150 HD
ENDROOT
BRANCH   1   5
ATOM      5  CA  PHE A   2     -32.645  -0.316  -3.049  0.00  0.00    +0.153 C 
BRANCH   5   7
ATOM      6  C   ALA A   1     -32.777  -2.705  -3.510  0.00  0.00    +0.238 C 
ATOM      7  N   PHE A   2     -32.214  -1.703  -2.865  0.00  0.00    -0.297 N 
ATOM      8  H   PHE A   2     -31.438  -1.904  -2.203  0.00  0.00    +0.150 HD
ATOM      9  O   ALA A   1     -33.699  -2.540  -4.274  0.00  0.00    -0.274 OA
BRANCH   6  10
ATOM     10  CA  ALA A   1     -32.175  -4.103  -3.293  0.00  0.00    +0.145 C 
ATOM     11  CB  ALA A   1     -33.053  -4.926  -2.338  0.00  0.00    +0.028 C 
BRANCH  10  12
ATOM     12  N   ALA A   1     -30.801  -4.038  -2.807  0.00  0.00    -0.238 NA
ATOM     13  H   ALA A   1     -30.582  -4.423  -1.866  0.00  0.00    +0.142 HD
ENDBRANCH  10  12
ENDBRANCH   6  10
ENDBRANCH   5   7
BRANCH   5  14
ATOM     14  CB  PHE A   2     -32.863   0.309  -1.684  0.00  0.00    +0.055 C 
BRANCH  14  15
ATOM     15  CG  PHE A   2     -33.984  -0.323  -0.921  0.00  0.00    -0.020 A 
ATOM     16  CD2 PHE A   2     -33.738  -1.114   0.167  0.00  0.00    -0.004 A 
ATOM     17  CE2 PHE A   2     -34.771  -1.676   0.880  0.00  0.00    -0.000 A 
ATOM     18  CZ  PHE A   2     -36.069  -1.482   0.483  0.00  0.00    -0.000 A 
ATOM     19  CE1 PHE A   2     -36.338  -0.703  -0.619  0.00  0.00    -0.000 A 
ATOM     20  CD1 PHE A   2     -35.290  -0.137  -1.316  0.00  0.00    -0.004 A 
ENDBRANCH  14  15
ENDBRANCH   5  14
ENDBRANCH   1   5
BRANCH   3  21
ATOM     21  CA  GLY A   3     -29.770   0.480  -5.455  0.00  0.00    +0.176 C 
BRANCH  21  22
ATOM     22  C   GLY A   3     -28.456   0.999  -4.901  0.00  0.00    +0.243 C 
ATOM     23  N   TYR A   4     -28.225   0.803  -3.610  0.00  0.00    -0.298 N 
ATOM     24  H   TYR A   4     -28.981   0.418  -3.008  0.00  0.00    +0.150 HD
ATOM     25  O   GLY A   3     -27.652   1.594  -5.632  0.00  0.00    -0.273 OA
BRANCH  23  26
ATOM     26  CA  TYR A   4     -26.927   1.119  -3.018  0.00  0.00    +0.141 C 
BRANCH  26  27
ATOM     27  C   TYR A   4     -25.826   0.174  -3.489  0.00  0.00    +0.227 C 
ATOM     28  O   TYR A   4     -26.095  -0.974  -3.830  0.00  0.00    -0.286 OA
ENDBRANCH  26  27
BRANCH  26  29
ATOM     29  CB  TYR A   4     -27.021   1.007  -1.497  0.00  0.00    +0.054 C 
BRANCH  29  30
ATOM     30  CG  TYR A   4     -27.921   2.047  -0.957  0.00  0.00    -0.020 A 
ATOM     31  CD2 TYR A   4     -29.250   1.774  -0.705  0.00  0.00    -0.001 A 
ATOM     32  CE2 TYR A   4     -30.101   2.768  -0.251  0.00  0.00    +0.036 A 
ATOM     33  CZ  TYR A   4     -29.604   4.056  -0.054  0.00  0.00    +0.134 A 
ATOM     34  CE1 TYR A   4     -28.285   4.346  -0.305  0.00  0.00    +0.036 A 
ATOM     35  CD1 TYR A   4     -27.451   3.347  -0.761  0.00  0.00    -0.001 A 
BRANCH  33  36
ATOM     36  OH  TYR A   4     -30.415   5.044   0.436  0.00  0.00    -0.506 OA
ATOM     37  HH  TYR A   4     -31.179   5.177  -0.179  0.00  0.00    +0.292 HD
ENDBRANCH  33  36
ENDBRANCH  29  30
ENDBRANCH  26  29
ENDBRANCH  23  26
ENDBRANCH  21  22
ENDBRANCH   3  21
TORSDOF 13
REMARK  Name = ../refined-set-2016/4f3c/4f3c_pocket.pdb
REMARK  209 active torsions:
REMARK  status: ('A' for Active; 'I' for Inactive)
REMARK    1  A    between atoms: _1  and  _3
REMARK    2  A    between atoms: _3  and  _4
REMARK    3  A    between atoms: _6  and  _8
REMARK    4  A    between atoms: _8  and  _9
REMARK    5  A    between atoms: _12  and  _14
REMARK    6  A    between atoms: _14  and  _15
REMARK    7  A    between atoms: _14  and  _17
REMARK    8  A    between atoms: _17  and  _18
REMARK    9  A    between atoms: _18  and  _19
REMARK   10  A    between atoms: _21  and  _23
REMARK   11  A    between atoms: _23  and  _24
REMARK   12  A    between atoms: _23  and  _26
REMARK   13  A    between atoms: _26  and  _27
REMARK   14  A    between atoms: _27  and  _28
REMARK   15  A    between atoms: _31  and  _33
REMARK   16  A    between atoms: _33  and  _34
REMARK   17  A    between atoms: _33  and  _36
REMARK   18  A    between atoms: _36  and  _37
REMARK   19  A    between atoms: _37  and  _38
REMARK   20  A    between atoms: _41  and  _43
REMARK   21  A    between atoms: _43  and  _44
REMARK   22  A    between atoms: _43  and  _46
REMARK   23  A    between atoms: _46  and  _47
REMARK   24  A    between atoms: _49  and  _51
REMARK   25  A    between atoms: _51  and  _52
REMARK   26  A    between atoms: _54  and  _56
REMARK   27  A    between atoms: _56  and  _57
REMARK   28  A    between atoms: _56  and  _59
REMARK   29  A    between atoms: _59  and  _60
REMARK   30  A    between atoms: _63  and  _65
REMARK   31  A    between atoms: _65  and  _66
REMARK   32  A    between atoms: _68  and  _70
REMARK   33  A    between atoms: _70  and  _71
REMARK   34  A    between atoms: _74  and  _76
REMARK   35  A    between atoms: _76  and  _77
REMARK   36  A    between atoms: _80  and  _82
REMARK   37  A    between atoms: _82  and  _83
REMARK   38  A    between atoms: _82  and  _85
REMARK   39  A    between atoms: _85  and  _86
REMARK   40  A    between atoms: _91  and  _93
REMARK   41  A    between atoms: _93  and  _94
REMARK   42  A    between atoms: _93  and  _96
REMARK   43  A    between atoms: _96  and  _97
REMARK   44  A    between atoms: _100  and  _102
REMARK   45  A    between atoms: _102  and  _103
REMARK   46  A    between atoms: _105  and  _107
REMARK   47  A    between atoms: _107  and  _108
REMARK   48  A    between atoms: _107  and  _110
REMARK   49  A    between atoms: _110  and  _111
REMARK   50  A    between atoms: _113  and  _115
REMARK   51  A    between atoms: _115  and  _116
REMARK   52  A    between atoms: _119  and  _121
REMARK   53  A    between atoms: _121  and  _122
REMARK   54  A    between atoms: _124  and  _126
REMARK   55  A    between atoms: _126  and  _127
REMARK   56  A    between atoms: _129  and  _131
REMARK   57  A    between atoms: _131  and  _132
REMARK   58  A    between atoms: _131  and  _134
REMARK   59  A    between atoms: _134  and  _135
REMARK   60  A    between atoms: _138  and  _140
REMARK   61  A    between atoms: _140  and  _141
REMARK   62  A    between atoms: _140  and  _143
REMARK   63  A    between atoms: _143  and  _144
REMARK   64  A    between atoms: _149  and  _151
REMARK   65  A    between atoms: _151  and  _152
REMARK   66  A    between atoms: _151  and  _154
REMARK   67  A    between atoms: _157  and  _159
REMARK   68  A    between atoms: _159  and  _160
REMARK   69  A    between atoms: _159  and  _162
REMARK   70  A    between atoms: _162  and  _163
REMARK   71  A    between atoms: _165  and  _167
REMARK   72  A    between atoms: _167  and  _168
REMARK   73  A    between atoms: _170  and  _172
REMARK   74  A    between atoms: _172  and  _173
REMARK   75  A    between atoms: _172  and  _175
REMARK   76  A    between atoms: _175  and  _176
REMARK   77  A    between atoms: _179  and  _181
REMARK   78  A    between atoms: _181  and  _182
REMARK   79  A    between atoms: _185  and  _187
REMARK   80  A    between atoms: _187  and  _188
REMARK   81  A    between atoms: _187  and  _190
REMARK   82  A    between atoms: _190  and  _191
REMARK   83  A    between atoms: _197  and  _199
REMARK   84  A    between atoms: _199  and  _200
REMARK   85  A    between atoms: _199  and  _202
REMARK   86  A    between atoms: _202  and  _203
REMARK   87  A    between atoms: _206  and  _208
REMARK   88  A    between atoms: _208  and  _209
REMARK   89  A    between atoms: _208  and  _211
REMARK   90  A    between atoms: _211  and  _212
REMARK   91  A    between atoms: _217  and  _219
REMARK   92  A    between atoms: _219  and  _220
REMARK   93  A    between atoms: _222  and  _224
REMARK   94  A    between atoms: _224  and  _225
REMARK   95  A    between atoms: _224  and  _227
REMARK   96  A    between atoms: _227  and  _228
REMARK   97  A    between atoms: _231  and  _233
REMARK   98  A    between atoms: _233  and  _234
REMARK   99  A    between atoms: _233  and  _236
REMARK  100  A    between atoms: _236  and  _237
REMARK  101  A    between atoms: _240  and  _242
REMARK  102  A    between atoms: _242  and  _243
REMARK  103  A    between atoms: _246  and  _248
REMARK  104  A    between atoms: _248  and  _249
REMARK  105  A    between atoms: _248  and  _251
REMARK  106  A    between atoms: _254  and  _256
REMARK  107  A    between atoms: _256  and  _257
REMARK  108  A    between atoms: _256  and  _259
REMARK  109  A    between atoms: _259  and  _260
REMARK  110  A    between atoms: _260  and  _261
REMARK  111  A    between atoms: _264  and  _266
REMARK  112  A    between atoms: _266  and  _267
REMARK  113  A    between atoms: _266  and  _269
REMARK  114  A    between atoms: _269  and  _270
REMARK  115  A    between atoms: _270  and  _271
REMARK  116  A    between atoms: _273  and  _275
REMARK  117  A    between atoms: _275  and  _276
REMARK  118  A    between atoms: _275  and  _278
REMARK  119  A    between atoms: _278  and  _279
REMARK  120  A    between atoms: _279  and  _280
REMARK  121  A    between atoms: _283  and  _285
REMARK  122  A    between atoms: _285  and  _286
REMARK  123  A    between atoms: _289  and  _291
REMARK  124  A    between atoms: _291  and  _292
REMARK  125  A    between atoms: _291  and  _294
REMARK  126  A    between atoms: _294  and  _295
REMARK  127  A    between atoms: _295  and  _296
REMARK  128  A    between atoms: _296  and  _297
REMARK  129  A    between atoms: _306  and  _308
REMARK  130  A    between atoms: _308  and  _309
REMARK  131  A    between atoms: _312  and  _314
REMARK  132  A    between atoms: _314  and  _315
REMARK  133  A    between atoms: _314  and  _317
REMARK  134  A    between atoms: _317  and  _318
REMARK  135  A    between atoms: _321  and  _323
REMARK  136  A    between atoms: _323  and  _324
REMARK  137  A    between atoms: _323  and  _326
REMARK  138  A    between atoms: _326  and  _327
REMARK  139  A    between atoms: _329  and  _331
REMARK  140  A    between atoms: _331  and  _332
REMARK  141  A    between atoms: _331  and  _334
REMARK  142  A    between atoms: _334  and  _335
REMARK  143  A    between atoms: _338  and  _340
REMARK  144  A    between atoms: _340  and  _341
REMARK  145  A    between atoms: _340  and  _343
REMARK  146  A    between atoms: _346  and  _348
REMARK  147  A    between atoms: _348  and  _349
REMARK  148  A    between atoms: _352  and  _354
REMARK  149  A    between atoms: _354  and  _355
REMARK  150  A    between atoms: _354  and  _357
REMARK  151  A    between atoms: _357  and  _358
REMARK  152  A    between atoms: _361  and  _363
REMARK  153  A    between atoms: _363  and  _364
REMARK  154  A    between atoms: _363  and  _366
REMARK  155  A    between atoms: _366  and  _367
REMARK  156  A    between atoms: _367  and  _368
REMARK  157  A    between atoms: _373  and  _375
REMARK  158  A    between atoms: _375  and  _376
REMARK  159  A    between atoms: _375  and  _378
REMARK  160  A    between atoms: _378  and  _379
REMARK  161  A    between atoms: _381  and  _383
REMARK  162  A    between atoms: _383  and  _384
REMARK  163  A    between atoms: _383  and  _386
REMARK  164  A    between atoms: _386  and  _387
REMARK  165  A    between atoms: _392  and  _394
REMARK  166  A    between atoms: _394  and  _395
REMARK  167  A    between atoms: _394  and  _397
REMARK  168  A    between atoms: _397  and  _398
REMARK  169  A    between atoms: _400  and  _402
REMARK  170  A    between atoms: _402  and  _403
REMARK  171  A    between atoms: _402  and  _405
REMARK  172  A    between atoms: _405  and  _406
REMARK  173  A    between atoms: _412  and  _414
REMARK  174  A    between atoms: _414  and  _415
REMARK  175  A    between atoms: _414  and  _417
REMARK  176  A    between atoms: _417  and  _418
REMARK  177  A    between atoms: _421  and  _423
REMARK  178  A    between atoms: _423  and  _424
REMARK  179  A    between atoms: _423  and  _426
REMARK  180  A    between atoms: _426  and  _427
REMARK  181  A    between atoms: _430  and  _432
REMARK  182  A    between atoms: _432  and  _433
REMARK  183  A    between atoms: _436  and  _438
REMARK  184  A    between atoms: _438  and  _439
REMARK  185  A    between atoms: _438  and  _441
REMARK  186  A    between atoms: _441  and  _442
REMARK  187  A    between atoms: _445  and  _447
REMARK  188  A    between atoms: _447  and  _448
REMARK  189  A    between atoms: _447  and  _450
REMARK  190  A    between atoms: _453  and  _455
REMARK  191  A    between atoms: _455  and  _456
REMARK  192  A    between atoms: _459  and  _461
REMARK  193  A    between atoms: _461  and  _462
REMARK  194  A    between atoms: _461  and  _464
REMARK  195  A    between atoms: _464  and  _465
REMARK  196  A    between atoms: _471  and  _473
REMARK  197  A    between atoms: _473  and  _474
REMARK  198  A    between atoms: _476  and  _478
REMARK  199  A    between atoms: _478  and  _479
REMARK  200  A    between atoms: _478  and  _481
REMARK  201  A    between atoms: _481  and  _482
REMARK  202  A    between atoms: _487  and  _488
REMARK  203  A    between atoms: _490  and  _492
REMARK  204  A    between atoms: _492  and  _493
REMARK  205  A    between atoms: _492  and  _495
REMARK  206  A    between atoms: _495  and  _496
REMARK  207  A    between atoms: _500  and  _501
REMARK  208  A    between atoms: _506  and  _508
REMARK  209  A    between atoms: _508  and  _509
REMARK                            x       y       z     vdW  Elec       q    Type
REMARK                         _______ _______ _______ _____ _____    ______ ____
ROOT
ATOM      1  C   LEU A   1     -26.283   2.935   3.780  0.00  0.00    +0.241 C 
ATOM      2  N   PRO A   2     -27.626   2.923   3.794  0.00  0.00    -0.272 N 
ATOM      3  CD  PRO A   2     -28.516   1.785   4.078  0.00  0.00    +0.094 C 
ATOM      4  CG  PRO A   2     -29.861   2.261   3.613  0.00  0.00    +0.024 C 
ATOM      5  CB  PRO A   2     -29.824   3.772   3.639  0.00  0.00    +0.031 C 
ATOM      6  CA  PRO A   2     -28.374   4.118   3.332  0.00  0.00    +0.152 C 
ATOM      7  O   LEU A   1     -25.629   3.906   3.396  0.00  0.00    -0.273 OA
ENDROOT
BRANCH   6   8
ATOM      8  C   PRO A   2     -27.981   5.316   4.139  0.00  0.00    +0.241 C 
ATOM      9  O   PRO A   2     -27.833   5.206   5.366  0.00  0.00    -0.273 OA
ATOM     10  N   GLY A   3     -27.782   6.449   3.471  0.00  0.00    -0.296 N 
ATOM     11  H   GLY A   3     -27.898   6.470   2.438  0.00  0.00    +0.150 HD
BRANCH  10  12
ATOM     12  CA  GLY A   3     -27.404   7.656   4.182  0.00  0.00    +0.163 C 
BRANCH  12  13
ATOM     13  C   GLY A   3     -25.933   7.766   4.475  0.00  0.00    +0.229 C 
ATOM     14  O   GLY A   3     -25.495   8.788   5.009  0.00  0.00    -0.286 OA
ENDBRANCH  12  13
ENDBRANCH  10  12
ENDBRANCH   6   8
BRANCH   1  15
ATOM     15  CA  LEU A   1     -25.555   1.652   4.210  0.00  0.00    +0.145 C 
BRANCH  15  16
ATOM     16  N   LEU A   1     -24.314   1.537   3.474  0.00  0.00    -0.238 NA
ATOM     17  H   LEU A   1     -23.480   2.079   3.778  0.00  0.00    +0.142 HD
ENDBRANCH  15  16
BRANCH  15  18
ATOM     18  CB  LEU A   1     -25.301   1.608   5.712  0.00  0.00    +0.026 C 
BRANCH  18  19
ATOM     19  CG  LEU A   1     -24.992   0.156   6.156  0.00  0.00    +0.002 C 
ATOM     20  CD2 LEU A   1     -24.540   0.049   7.592  0.00  0.00    +0.000 C 
ATOM     21  CD1 LEU A   1     -26.175  -0.790   5.932  0.00  0.00    +0.000 C 
ENDBRANCH  18  19
ENDBRANCH  15  18
ENDBRANCH   1  15
TORSDOF 7
REMARK  Name = ../refined-set-2016/4f3c/4f3c_pocket.pdb
REMARK  209 active torsions:
REMARK  status: ('A' for Active; 'I' for Inactive)
REMARK    1  A    between atoms: _1  and  _3
REMARK    2  A    between atoms: _3  and  _4
REMARK    3  A    between atoms: _6  and  _8
REMARK    4  A    between atoms: _8  and  _9
REMARK    5  A    between atoms: _12  and  _14
REMARK    6  A    between atoms: _14  and  _15
REMARK    7  A    between atoms: _14  and  _17
REMARK    8  A    between atoms: _17  and  _18
REMARK    9  A    between atoms: _18  and  _19
REMARK   10  A    between atoms: _21  and  _23
REMARK   11  A    between atoms: _23  and  _24
REMARK   12  A    between atoms: _23  and  _26
REMARK   13  A    between atoms: _26  and  _27
REMARK   14  A    between atoms: _27  and  _28
REMARK   15  A    between atoms: _31  and  _33
REMARK   16  A    between atoms: _33  and  _34
REMARK   17  A    between atoms: _33  and  _36
REMARK   18  A    between atoms: _36  and  _37
REMARK   19  A    between atoms: _37  and  _38
REMARK   20  A    between atoms: _41  and  _43
REMARK   21  A    between atoms: _43  and  _44
REMARK   22  A    between atoms: _43  and  _46
REMARK   23  A    between atoms: _46  and  _47
REMARK   24  A    between atoms: _49  and  _51
REMARK   25  A    between atoms: _51  and  _52
REMARK   26  A    between atoms: _54  and  _56
REMARK   27  A    between atoms: _56  and  _57
REMARK   28  A    between atoms: _56  and  _59
REMARK   29  A    between atoms: _59  and  _60
REMARK   30  A    between atoms: _63  and  _65
REMARK   31  A    between atoms: _65  and  _66
REMARK   32  A    between atoms: _68  and  _70
REMARK   33  A    between atoms: _70  and  _71
REMARK   34  A    between atoms: _74  and  _76
REMARK   35  A    between atoms: _76  and  _77
REMARK   36  A    between atoms: _80  and  _82
REMARK   37  A    between atoms: _82  and  _83
REMARK   38  A    between atoms: _82  and  _85
REMARK   39  A    between atoms: _85  and  _86
REMARK   40  A    between atoms: _91  and  _93
REMARK   41  A    between atoms: _93  and  _94
REMARK   42  A    between atoms: _93  and  _96
REMARK   43  A    between atoms: _96  and  _97
REMARK   44  A    between atoms: _100  and  _102
REMARK   45  A    between atoms: _102  and  _103
REMARK   46  A    between atoms: _105  and  _107
REMARK   47  A    between atoms: _107  and  _108
REMARK   48  A    between atoms: _107  and  _110
REMARK   49  A    between atoms: _110  and  _111
REMARK   50  A    between atoms: _113  and  _115
REMARK   51  A    between atoms: _115  and  _116
REMARK   52  A    between atoms: _119  and  _121
REMARK   53  A    between atoms: _121  and  _122
REMARK   54  A    between atoms: _124  and  _126
REMARK   55  A    between atoms: _126  and  _127
REMARK   56  A    between atoms: _129  and  _131
REMARK   57  A    between atoms: _131  and  _132
REMARK   58  A    between atoms: _131  and  _134
REMARK   59  A    between atoms: _134  and  _135
REMARK   60  A    between atoms: _138  and  _140
REMARK   61  A    between atoms: _140  and  _141
REMARK   62  A    between atoms: _140  and  _143
REMARK   63  A    between atoms: _143  and  _144
REMARK   64  A    between atoms: _149  and  _151
REMARK   65  A    between atoms: _151  and  _152
REMARK   66  A    between atoms: _151  and  _154
REMARK   67  A    between atoms: _157  and  _159
REMARK   68  A    between atoms: _159  and  _160
REMARK   69  A    between atoms: _159  and  _162
REMARK   70  A    between atoms: _162  and  _163
REMARK   71  A    between atoms: _165  and  _167
REMARK   72  A    between atoms: _167  and  _168
REMARK   73  A    between atoms: _170  and  _172
REMARK   74  A    between atoms: _172  and  _173
REMARK   75  A    between atoms: _172  and  _175
REMARK   76  A    between atoms: _175  and  _176
REMARK   77  A    between atoms: _179  and  _181
REMARK   78  A    between atoms: _181  and  _182
REMARK   79  A    between atoms: _185  and  _187
REMARK   80  A    between atoms: _187  and  _188
REMARK   81  A    between atoms: _187  and  _190
REMARK   82  A    between atoms: _190  and  _191
REMARK   83  A    between atoms: _197  and  _199
REMARK   84  A    between atoms: _199  and  _200
REMARK   85  A    between atoms: _199  and  _202
REMARK   86  A    between atoms: _202  and  _203
REMARK   87  A    between atoms: _206  and  _208
REMARK   88  A    between atoms: _208  and  _209
REMARK   89  A    between atoms: _208  and  _211
REMARK   90  A    between atoms: _211  and  _212
REMARK   91  A    between atoms: _217  and  _219
REMARK   92  A    between atoms: _219  and  _220
REMARK   93  A    between atoms: _222  and  _224
REMARK   94  A    between atoms: _224  and  _225
REMARK   95  A    between atoms: _224  and  _227
REMARK   96  A    between atoms: _227  and  _228
REMARK   97  A    between atoms: _231  and  _233
REMARK   98  A    between atoms: _233  and  _234
REMARK   99  A    between atoms: _233  and  _236
REMARK  100  A    between atoms: _236  and  _237
REMARK  101  A    between atoms: _240  and  _242
REMARK  102  A    between atoms: _242  and  _243
REMARK  103  A    between atoms: _246  and  _248
REMARK  104  A    between atoms: _248  and  _249
REMARK  105  A    between atoms: _248  and  _251
REMARK  106  A    between atoms: _254  and  _256
REMARK  107  A    between atoms: _256  and  _257
REMARK  108  A    between atoms: _256  and  _259
REMARK  109  A    between atoms: _259  and  _260
REMARK  110  A    between atoms: _260  and  _261
REMARK  111  A    between atoms: _264  and  _266
REMARK  112  A    between atoms: _266  and  _267
REMARK  113  A    between atoms: _266  and  _269
REMARK  114  A    between atoms: _269  and  _270
REMARK  115  A    between atoms: _270  and  _271
REMARK  116  A    between atoms: _273  and  _275
REMARK  117  A    between atoms: _275  and  _276
REMARK  118  A    between atoms: _275  and  _278
REMARK  119  A    between atoms: _278  and  _279
REMARK  120  A    between atoms: _279  and  _280
REMARK  121  A    between atoms: _283  and  _285
REMARK  122  A    between atoms: _285  and  _286
REMARK  123  A    between atoms: _289  and  _291
REMARK  124  A    between atoms: _291  and  _292
REMARK  125  A    between atoms: _291  and  _294
REMARK  126  A    between atoms: _294  and  _295
REMARK  127  A    between atoms: _295  and  _296
REMARK  128  A    between atoms: _296  and  _297
REMARK  129  A    between atoms: _306  and  _308
REMARK  130  A    between atoms: _308  and  _309
REMARK  131  A    between atoms: _312  and  _314
REMARK  132  A    between atoms: _314  and  _315
REMARK  133  A    between atoms: _314  and  _317
REMARK  134  A    between atoms: _317  and  _318
REMARK  135  A    between atoms: _321  and  _323
REMARK  136  A    between atoms: _323  and  _324
REMARK  137  A    between atoms: _323  and  _326
REMARK  138  A    between atoms: _326  and  _327
REMARK  139  A    between atoms: _329  and  _331
REMARK  140  A    between atoms: _331  and  _332
REMARK  141  A    between atoms: _331  and  _334
REMARK  142  A    between atoms: _334  and  _335
REMARK  143  A    between atoms: _338  and  _340
REMARK  144  A    between atoms: _340  and  _341
REMARK  145  A    between atoms: _340  and  _343
REMARK  146  A    between atoms: _346  and  _348
REMARK  147  A    between atoms: _348  and  _349
REMARK  148  A    between atoms: _352  and  _354
REMARK  149  A    between atoms: _354  and  _355
REMARK  150  A    between atoms: _354  and  _357
REMARK  151  A    between atoms: _357  and  _358
REMARK  152  A    between atoms: _361  and  _363
REMARK  153  A    between atoms: _363  and  _364
REMARK  154  A    between atoms: _363  and  _366
REMARK  155  A    between atoms: _366  and  _367
REMARK  156  A    between atoms: _367  and  _368
REMARK  157  A    between atoms: _373  and  _375
REMARK  158  A    between atoms: _375  and  _376
REMARK  159  A    between atoms: _375  and  _378
REMARK  160  A    between atoms: _378  and  _379
REMARK  161  A    between atoms: _381  and  _383
REMARK  162  A    between atoms: _383  and  _384
REMARK  163  A    between atoms: _383  and  _386
REMARK  164  A    between atoms: _386  and  _387
REMARK  165  A    between atoms: _392  and  _394
REMARK  166  A    between atoms: _394  and  _395
REMARK  167  A    between atoms: _394  and  _397
REMARK  168  A    between atoms: _397  and  _398
REMARK  169  A    between atoms: _400  and  _402
REMARK  170  A    between atoms: _402  and  _403
REMARK  171  A    between atoms: _402  and  _405
REMARK  172  A    between atoms: _405  and  _406
REMARK  173  A    between atoms: _412  and  _414
REMARK  174  A    between atoms: _414  and  _415
REMARK  175  A    between atoms: _414  and  _417
REMARK  176  A    between atoms: _417  and  _418
REMARK  177  A    between atoms: _421  and  _423
REMARK  178  A    between atoms: _423  and  _424
REMARK  179  A    between atoms: _423  and  _426
REMARK  180  A    between atoms: _426  and  _427
REMARK  181  A    between atoms: _430  and  _432
REMARK  182  A    between atoms: _432  and  _433
REMARK  183  A    between atoms: _436  and  _438
REMARK  184  A    between atoms: _438  and  _439
REMARK  185  A    between atoms: _438  and  _441
REMARK  186  A    between atoms: _441  and  _442
REMARK  187  A    between atoms: _445  and  _447
REMARK  188  A    between atoms: _447  and  _448
REMARK  189  A    between atoms: _447  and  _450
REMARK  190  A    between atoms: _453  and  _455
REMARK  191  A    between atoms: _455  and  _456
REMARK  192  A    between atoms: _459  and  _461
REMARK  193  A    between atoms: _461  and  _462
REMARK  194  A    between atoms: _461  and  _464
REMARK  195  A    between atoms: _464  and  _465
REMARK  196  A    between atoms: _471  and  _473
REMARK  197  A    between atoms: _473  and  _474
REMARK  198  A    between atoms: _476  and  _478
REMARK  199  A    between atoms: _478  and  _479
REMARK  200  A    between atoms: _478  and  _481
REMARK  201  A    between atoms: _481  and  _482
REMARK  202  A    between atoms: _487  and  _488
REMARK  203  A    between atoms: _490  and  _492
REMARK  204  A    between atoms: _492  and  _493
REMARK  205  A    between atoms: _492  and  _495
REMARK  206  A    between atoms: _495  and  _496
REMARK  207  A    between atoms: _500  and  _501
REMARK  208  A    between atoms: _506  and  _508
REMARK  209  A    between atoms: _508  and  _509
REMARK                            x       y       z     vdW  Elec       q    Type
REMARK                         _______ _______ _______ _____ _____    ______ ____
ROOT
ATOM      1  O   HOH     1     -31.102  -7.887   8.509  0.00  0.00    +0.000 OA
ENDROOT
TORSDOF 0
REMARK  Name = ../refined-set-2016/4f3c/4f3c_pocket.pdb
REMARK  209 active torsions:
REMARK  status: ('A' for Active; 'I' for Inactive)
REMARK    1  A    between atoms: _1  and  _3
REMARK    2  A    between atoms: _3  and  _4
REMARK    3  A    between atoms: _6  and  _8
REMARK    4  A    between atoms: _8  and  _9
REMARK    5  A    between atoms: _12  and  _14
REMARK    6  A    between atoms: _14  and  _15
REMARK    7  A    between atoms: _14  and  _17
REMARK    8  A    between atoms: _17  and  _18
REMARK    9  A    between atoms: _18  and  _19
REMARK   10  A    between atoms: _21  and  _23
REMARK   11  A    between atoms: _23  and  _24
REMARK   12  A    between atoms: _23  and  _26
REMARK   13  A    between atoms: _26  and  _27
REMARK   14  A    between atoms: _27  and  _28
REMARK   15  A    between atoms: _31  and  _33
REMARK   16  A    between atoms: _33  and  _34
REMARK   17  A    between atoms: _33  and  _36
REMARK   18  A    between atoms: _36  and  _37
REMARK   19  A    between atoms: _37  and  _38
REMARK   20  A    between atoms: _41  and  _43
REMARK   21  A    between atoms: _43  and  _44
REMARK   22  A    between atoms: _43  and  _46
REMARK   23  A    between atoms: _46  and  _47
REMARK   24  A    between atoms: _49  and  _51
REMARK   25  A    between atoms: _51  and  _52
REMARK   26  A    between atoms: _54  and  _56
REMARK   27  A    between atoms: _56  and  _57
REMARK   28  A    between atoms: _56  and  _59
REMARK   29  A    between atoms: _59  and  _60
REMARK   30  A    between atoms: _63  and  _65
REMARK   31  A    between atoms: _65  and  _66
REMARK   32  A    between atoms: _68  and  _70
REMARK   33  A    between atoms: _70  and  _71
REMARK   34  A    between atoms: _74  and  _76
REMARK   35  A    between atoms: _76  and  _77
REMARK   36  A    between atoms: _80  and  _82
REMARK   37  A    between atoms: _82  and  _83
REMARK   38  A    between atoms: _82  and  _85
REMARK   39  A    between atoms: _85  and  _86
REMARK   40  A    between atoms: _91  and  _93
REMARK   41  A    between atoms: _93  and  _94
REMARK   42  A    between atoms: _93  and  _96
REMARK   43  A    between atoms: _96  and  _97
REMARK   44  A    between atoms: _100  and  _102
REMARK   45  A    between atoms: _102  and  _103
REMARK   46  A    between atoms: _105  and  _107
REMARK   47  A    between atoms: _107  and  _108
REMARK   48  A    between atoms: _107  and  _110
REMARK   49  A    between atoms: _110  and  _111
REMARK   50  A    between atoms: _113  and  _115
REMARK   51  A    between atoms: _115  and  _116
REMARK   52  A    between atoms: _119  and  _121
REMARK   53  A    between atoms: _121  and  _122
REMARK   54  A    between atoms: _124  and  _126
REMARK   55  A    between atoms: _126  and  _127
REMARK   56  A    between atoms: _129  and  _131
REMARK   57  A    between atoms: _131  and  _132
REMARK   58  A    between atoms: _131  and  _134
REMARK   59  A    between atoms: _134  and  _135
REMARK   60  A    between atoms: _138  and  _140
REMARK   61  A    between atoms: _140  and  _141
REMARK   62  A    between atoms: _140  and  _143
REMARK   63  A    between atoms: _143  and  _144
REMARK   64  A    between atoms: _149  and  _151
REMARK   65  A    between atoms: _151  and  _152
REMARK   66  A    between atoms: _151  and  _154
REMARK   67  A    between atoms: _157  and  _159
REMARK   68  A    between atoms: _159  and  _160
REMARK   69  A    between atoms: _159  and  _162
REMARK   70  A    between atoms: _162  and  _163
REMARK   71  A    between atoms: _165  and  _167
REMARK   72  A    between atoms: _167  and  _168
REMARK   73  A    between atoms: _170  and  _172
REMARK   74  A    between atoms: _172  and  _173
REMARK   75  A    between atoms: _172  and  _175
REMARK   76  A    between atoms: _175  and  _176
REMARK   77  A    between atoms: _179  and  _181
REMARK   78  A    between atoms: _181  and  _182
REMARK   79  A    between atoms: _185  and  _187
REMARK   80  A    between atoms: _187  and  _188
REMARK   81  A    between atoms: _187  and  _190
REMARK   82  A    between atoms: _190  and  _191
REMARK   83  A    between atoms: _197  and  _199
REMARK   84  A    between atoms: _199  and  _200
REMARK   85  A    between atoms: _199  and  _202
REMARK   86  A    between atoms: _202  and  _203
REMARK   87  A    between atoms: _206  and  _208
REMARK   88  A    between atoms: _208  and  _209
REMARK   89  A    between atoms: _208  and  _211
REMARK   90  A    between atoms: _211  and  _212
REMARK   91  A    between atoms: _217  and  _219
REMARK   92  A    between atoms: _219  and  _220
REMARK   93  A    between atoms: _222  and  _224
REMARK   94  A    between atoms: _224  and  _225
REMARK   95  A    between atoms: _224  and  _227
REMARK   96  A    between atoms: _227  and  _228
REMARK   97  A    between atoms: _231  and  _233
REMARK   98  A    between atoms: _233  and  _234
REMARK   99  A    between atoms: _233  and  _236
REMARK  100  A    between atoms: _236  and  _237
REMARK  101  A    between atoms: _240  and  _242
REMARK  102  A    between atoms: _242  and  _243
REMARK  103  A    between atoms: _246  and  _248
REMARK  104  A    between atoms: _248  and  _249
REMARK  105  A    between atoms: _248  and  _251
REMARK  106  A    between atoms: _254  and  _256
REMARK  107  A    between atoms: _256  and  _257
REMARK  108  A    between atoms: _256  and  _259
REMARK  109  A    between atoms: _259  and  _260
REMARK  110  A    between atoms: _260  and  _261
REMARK  111  A    between atoms: _264  and  _266
REMARK  112  A    between atoms: _266  and  _267
REMARK  113  A    between atoms: _266  and  _269
REMARK  114  A    between atoms: _269  and  _270
REMARK  115  A    between atoms: _270  and  _271
REMARK  116  A    between atoms: _273  and  _275
REMARK  117  A    between atoms: _275  and  _276
REMARK  118  A    between atoms: _275  and  _278
REMARK  119  A    between atoms: _278  and  _279
REMARK  120  A    between atoms: _279  and  _280
REMARK  121  A    between atoms: _283  and  _285
REMARK  122  A    between atoms: _285  and  _286
REMARK  123  A    between atoms: _289  and  _291
REMARK  124  A    between atoms: _291  and  _292
REMARK  125  A    between atoms: _291  and  _294
REMARK  126  A    between atoms: _294  and  _295
REMARK  127  A    between atoms: _295  and  _296
REMARK  128  A    between atoms: _296  and  _297
REMARK  129  A    between atoms: _306  and  _308
REMARK  130  A    between atoms: _308  and  _309
REMARK  131  A    between atoms: _312  and  _314
REMARK  132  A    between atoms: _314  and  _315
REMARK  133  A    between atoms: _314  and  _317
REMARK  134  A    between atoms: _317  and  _318
REMARK  135  A    between atoms: _321  and  _323
REMARK  136  A    between atoms: _323  and  _324
REMARK  137  A    between atoms: _323  and  _326
REMARK  138  A    between atoms: _326  and  _327
REMARK  139  A    between atoms: _329  and  _331
REMARK  140  A    between atoms: _331  and  _332
REMARK  141  A    between atoms: _331  and  _334
REMARK  142  A    between atoms: _334  and  _335
REMARK  143  A    between atoms: _338  and  _340
REMARK  144  A    between atoms: _340  and  _341
REMARK  145  A    between atoms: _340  and  _343
REMARK  146  A    between atoms: _346  and  _348
REMARK  147  A    between atoms: _348  and  _349
REMARK  148  A    between atoms: _352  and  _354
REMARK  149  A    between atoms: _354  and  _355
REMARK  150  A    between atoms: _354  and  _357
REMARK  151  A    between atoms: _357  and  _358
REMARK  152  A    between atoms: _361  and  _363
REMARK  153  A    between atoms: _363  and  _364
REMARK  154  A    between atoms: _363  and  _366
REMARK  155  A    between atoms: _366  and  _367
REMARK  156  A    between atoms: _367  and  _368
REMARK  157  A    between atoms: _373  and  _375
REMARK  158  A    between atoms: _375  and  _376
REMARK  159  A    between atoms: _375  and  _378
REMARK  160  A    between atoms: _378  and  _379
REMARK  161  A    between atoms: _381  and  _383
REMARK  162  A    between atoms: _383  and  _384
REMARK  163  A    between atoms: _383  and  _386
REMARK  164  A    between atoms: _386  and  _387
REMARK  165  A    between atoms: _392  and  _394
REMARK  166  A    between atoms: _394  and  _395
REMARK  167  A    between atoms: _394  and  _397
REMARK  168  A    between atoms: _397  and  _398
REMARK  169  A    between atoms: _400  and  _402
REMARK  170  A    between atoms: _402  and  _403
REMARK  171  A    between atoms: _402  and  _405
REMARK  172  A    between atoms: _405  and  _406
REMARK  173  A    between atoms: _412  and  _414
REMARK  174  A    between atoms: _414  and  _415
REMARK  175  A    between atoms: _414  and  _417
REMARK  176  A    between atoms: _417  and  _418
REMARK  177  A    between atoms: _421  and  _423
REMARK  178  A    between atoms: _423  and  _424
REMARK  179  A    between atoms: _423  and  _426
REMARK  180  A    between atoms: _426  and  _427
REMARK  181  A    between atoms: _430  and  _432
REMARK  182  A    between atoms: _432  and  _433
REMARK  183  A    between atoms: _436  and  _438
REMARK  184  A    between atoms: _438  and  _439
REMARK  185  A    between atoms: _438  and  _441
REMARK  186  A    between atoms: _441  and  _442
REMARK  187  A    between atoms: _445  and  _447
REMARK  188  A    between atoms: _447  and  _448
REMARK  189  A    between atoms: _447  and  _450
REMARK  190  A    between atoms: _453  and  _455
REMARK  191  A    between atoms: _455  and  _456
REMARK  192  A    between atoms: _459  and  _461
REMARK  193  A    between atoms: _461  and  _462
REMARK  194  A    between atoms: _461  and  _464
REMARK  195  A    between atoms: _464  and  _465
REMARK  196  A    between atoms: _471  and  _473
REMARK  197  A    between atoms: _473  and  _474
REMARK  198  A    between atoms: _476  and  _478
REMARK  199  A    between atoms: _478  and  _479
REMARK  200  A    between atoms: _478  and  _481
REMARK  201  A    between atoms: _481  and  _482
REMARK  202  A    between atoms: _487  and  _488
REMARK  203  A    between atoms: _490  and  _492
REMARK  204  A    between atoms: _492  and  _493
REMARK  205  A    between atoms: _492  and  _495
REMARK  206  A    between atoms: _495  and  _496
REMARK  207  A    between atoms: _500  and  _501
REMARK  208  A    between atoms: _506  and  _508
REMARK  209  A    between atoms: _508  and  _509
REMARK                            x       y       z     vdW  Elec       q    Type
REMARK                         _______ _______ _______ _____ _____    ______ ____
ROOT
ATOM      1  O   HOH     1     -27.055   4.415   7.963  0.00  0.00    +0.000 OA
ENDROOT
TORSDOF 0
REMARK  Name = ../refined-set-2016/4f3c/4f3c_pocket.pdb
REMARK  209 active torsions:
REMARK  status: ('A' for Active; 'I' for Inactive)
REMARK    1  A    between atoms: _1  and  _3
REMARK    2  A    between atoms: _3  and  _4
REMARK    3  A    between atoms: _6  and  _8
REMARK    4  A    between atoms: _8  and  _9
REMARK    5  A    between atoms: _12  and  _14
REMARK    6  A    between atoms: _14  and  _15
REMARK    7  A    between atoms: _14  and  _17
REMARK    8  A    between atoms: _17  and  _18
REMARK    9  A    between atoms: _18  and  _19
REMARK   10  A    between atoms: _21  and  _23
REMARK   11  A    between atoms: _23  and  _24
REMARK   12  A    between atoms: _23  and  _26
REMARK   13  A    between atoms: _26  and  _27
REMARK   14  A    between atoms: _27  and  _28
REMARK   15  A    between atoms: _31  and  _33
REMARK   16  A    between atoms: _33  and  _34
REMARK   17  A    between atoms: _33  and  _36
REMARK   18  A    between atoms: _36  and  _37
REMARK   19  A    between atoms: _37  and  _38
REMARK   20  A    between atoms: _41  and  _43
REMARK   21  A    between atoms: _43  and  _44
REMARK   22  A    between atoms: _43  and  _46
REMARK   23  A    between atoms: _46  and  _47
REMARK   24  A    between atoms: _49  and  _51
REMARK   25  A    between atoms: _51  and  _52
REMARK   26  A    between atoms: _54  and  _56
REMARK   27  A    between atoms: _56  and  _57
REMARK   28  A    between atoms: _56  and  _59
REMARK   29  A    between atoms: _59  and  _60
REMARK   30  A    between atoms: _63  and  _65
REMARK   31  A    between atoms: _65  and  _66
REMARK   32  A    between atoms: _68  and  _70
REMARK   33  A    between atoms: _70  and  _71
REMARK   34  A    between atoms: _74  and  _76
REMARK   35  A    between atoms: _76  and  _77
REMARK   36  A    between atoms: _80  and  _82
REMARK   37  A    between atoms: _82  and  _83
REMARK   38  A    between atoms: _82  and  _85
REMARK   39  A    between atoms: _85  and  _86
REMARK   40  A    between atoms: _91  and  _93
REMARK   41  A    between atoms: _93  and  _94
REMARK   42  A    between atoms: _93  and  _96
REMARK   43  A    between atoms: _96  and  _97
REMARK   44  A    between atoms: _100  and  _102
REMARK   45  A    between atoms: _102  and  _103
REMARK   46  A    between atoms: _105  and  _107
REMARK   47  A    between atoms: _107  and  _108
REMARK   48  A    between atoms: _107  and  _110
REMARK   49  A    between atoms: _110  and  _111
REMARK   50  A    between atoms: _113  and  _115
REMARK   51  A    between atoms: _115  and  _116
REMARK   52  A    between atoms: _119  and  _121
REMARK   53  A    between atoms: _121  and  _122
REMARK   54  A    between atoms: _124  and  _126
REMARK   55  A    between atoms: _126  and  _127
REMARK   56  A    between atoms: _129  and  _131
REMARK   57  A    between atoms: _131  and  _132
REMARK   58  A    between atoms: _131  and  _134
REMARK   59  A    between atoms: _134  and  _135
REMARK   60  A    between atoms: _138  and  _140
REMARK   61  A    between atoms: _140  and  _141
REMARK   62  A    between atoms: _140  and  _143
REMARK   63  A    between atoms: _143  and  _144
REMARK   64  A    between atoms: _149  and  _151
REMARK   65  A    between atoms: _151  and  _152
REMARK   66  A    between atoms: _151  and  _154
REMARK   67  A    between atoms: _157  and  _159
REMARK   68  A    between atoms: _159  and  _160
REMARK   69  A    between atoms: _159  and  _162
REMARK   70  A    between atoms: _162  and  _163
REMARK   71  A    between atoms: _165  and  _167
REMARK   72  A    between atoms: _167  and  _168
REMARK   73  A    between atoms: _170  and  _172
REMARK   74  A    between atoms: _172  and  _173
REMARK   75  A    between atoms: _172  and  _175
REMARK   76  A    between atoms: _175  and  _176
REMARK   77  A    between atoms: _179  and  _181
REMARK   78  A    between atoms: _181  and  _182
REMARK   79  A    between atoms: _185  and  _187
REMARK   80  A    between atoms: _187  and  _188
REMARK   81  A    between atoms: _187  and  _190
REMARK   82  A    between atoms: _190  and  _191
REMARK   83  A    between atoms: _197  and  _199
REMARK   84  A    between atoms: _199  and  _200
REMARK   85  A    between atoms: _199  and  _202
REMARK   86  A    between atoms: _202  and  _203
REMARK   87  A    between atoms: _206  and  _208
REMARK   88  A    between atoms: _208  and  _209
REMARK   89  A    between atoms: _208  and  _211
REMARK   90  A    between atoms: _211  and  _212
REMARK   91  A    between atoms: _217  and  _219
REMARK   92  A    between atoms: _219  and  _220
REMARK   93  A    between atoms: _222  and  _224
REMARK   94  A    between atoms: _224  and  _225
REMARK   95  A    between atoms: _224  and  _227
REMARK   96  A    between atoms: _227  and  _228
REMARK   97  A    between atoms: _231  and  _233
REMARK   98  A    between atoms: _233  and  _234
REMARK   99  A    between atoms: _233  and  _236
REMARK  100  A    between atoms: _236  and  _237
REMARK  101  A    between atoms: _240  and  _242
REMARK  102  A    between atoms: _242  and  _243
REMARK  103  A    between atoms: _246  and  _248
REMARK  104  A    between atoms: _248  and  _249
REMARK  105  A    between atoms: _248  and  _251
REMARK  106  A    between atoms: _254  and  _256
REMARK  107  A    between atoms: _256  and  _257
REMARK  108  A    between atoms: _256  and  _259
REMARK  109  A    between atoms: _259  and  _260
REMARK  110  A    between atoms: _260  and  _261
REMARK  111  A    between atoms: _264  and  _266
REMARK  112  A    between atoms: _266  and  _267
REMARK  113  A    between atoms: _266  and  _269
REMARK  114  A    between atoms: _269  and  _270
REMARK  115  A    between atoms: _270  and  _271
REMARK  116  A    between atoms: _273  and  _275
REMARK  117  A    between atoms: _275  and  _276
REMARK  118  A    between atoms: _275  and  _278
REMARK  119  A    between atoms: _278  and  _279
REMARK  120  A    between atoms: _279  and  _280
REMARK  121  A    between atoms: _283  and  _285
REMARK  122  A    between atoms: _285  and  _286
REMARK  123  A    between atoms: _289  and  _291
REMARK  124  A    between atoms: _291  and  _292
REMARK  125  A    between atoms: _291  and  _294
REMARK  126  A    between atoms: _294  and  _295
REMARK  127  A    between atoms: _295  and  _296
REMARK  128  A    between atoms: _296  and  _297
REMARK  129  A    between atoms: _306  and  _308
REMARK  130  A    between atoms: _308  and  _309
REMARK  131  A    between atoms: _312  and  _314
REMARK  132  A    between atoms: _314  and  _315
REMARK  133  A    between atoms: _314  and  _317
REMARK  134  A    between atoms: _317  and  _318
REMARK  135  A    between atoms: _321  and  _323
REMARK  136  A    between atoms: _323  and  _324
REMARK  137  A    between atoms: _323  and  _326
REMARK  138  A    between atoms: _326  and  _327
REMARK  139  A    between atoms: _329  and  _331
REMARK  140  A    between atoms: _331  and  _332
REMARK  141  A    between atoms: _331  and  _334
REMARK  142  A    between atoms: _334  and  _335
REMARK  143  A    between atoms: _338  and  _340
REMARK  144  A    between atoms: _340  and  _341
REMARK  145  A    between atoms: _340  and  _343
REMARK  146  A    between atoms: _346  and  _348
REMARK  147  A    between atoms: _348  and  _349
REMARK  148  A    between atoms: _352  and  _354
REMARK  149  A    between atoms: _354  and  _355
REMARK  150  A    between atoms: _354  and  _357
REMARK  151  A    between atoms: _357  and  _358
REMARK  152  A    between atoms: _361  and  _363
REMARK  153  A    between atoms: _363  and  _364
REMARK  154  A    between atoms: _363  and  _366
REMARK  155  A    between atoms: _366  and  _367
REMARK  156  A    between atoms: _367  and  _368
REMARK  157  A    between atoms: _373  and  _375
REMARK  158  A    between atoms: _375  and  _376
REMARK  159  A    between atoms: _375  and  _378
REMARK  160  A    between atoms: _378  and  _379
REMARK  161  A    between atoms: _381  and  _383
REMARK  162  A    between atoms: _383  and  _384
REMARK  163  A    between atoms: _383  and  _386
REMARK  164  A    between atoms: _386  and  _387
REMARK  165  A    between atoms: _392  and  _394
REMARK  166  A    between atoms: _394  and  _395
REMARK  167  A    between atoms: _394  and  _397
REMARK  168  A    between atoms: _397  and  _398
REMARK  169  A    between atoms: _400  and  _402
REMARK  170  A    between atoms: _402  and  _403
REMARK  171  A    between atoms: _402  and  _405
REMARK  172  A    between atoms: _405  and  _406
REMARK  173  A    between atoms: _412  and  _414
REMARK  174  A    between atoms: _414  and  _415
REMARK  175  A    between atoms: _414  and  _417
REMARK  176  A    between atoms: _417  and  _418
REMARK  177  A    between atoms: _421  and  _423
REMARK  178  A    between atoms: _423  and  _424
REMARK  179  A    between atoms: _423  and  _426
REMARK  180  A    between atoms: _426  and  _427
REMARK  181  A    between atoms: _430  and  _432
REMARK  182  A    between atoms: _432  and  _433
REMARK  183  A    between atoms: _436  and  _438
REMARK  184  A    between atoms: _438  and  _439
REMARK  185  A    between atoms: _438  and  _441
REMARK  186  A    between atoms: _441  and  _442
REMARK  187  A    between atoms: _445  and  _447
REMARK  188  A    between atoms: _447  and  _448
REMARK  189  A    between atoms: _447  and  _450
REMARK  190  A    between atoms: _453  and  _455
REMARK  191  A    between atoms: _455  and  _456
REMARK  192  A    between atoms: _459  and  _461
REMARK  193  A    between atoms: _461  and  _462
REMARK  194  A    between atoms: _461  and  _464
REMARK  195  A    between atoms: _464  and  _465
REMARK  196  A    between atoms: _471  and  _473
REMARK  197  A    between atoms: _473  and  _474
REMARK  198  A    between atoms: _476  and  _478
REMARK  199  A    between atoms: _478  and  _479
REMARK  200  A    between atoms: _478  and  _481
REMARK  201  A    between atoms: _481  and  _482
REMARK  202  A    between atoms: _487  and  _488
REMARK  203  A    between atoms: _490  and  _492
REMARK  204  A    between atoms: _492  and  _493
REMARK  205  A    between atoms: _492  and  _495
REMARK  206  A    between atoms: _495  and  _496
REMARK  207  A    between atoms: _500  and  _501
REMARK  208  A    between atoms: _506  and  _508
REMARK  209  A    between atoms: _508  and  _509
REMARK                            x       y       z     vdW  Elec       q    Type
REMARK                         _______ _______ _______ _____ _____    ______ ____
ROOT
ATOM      1  O   HOH     1     -42.776  -8.863   0.902  0.00  0.00    +0.000 OA
ENDROOT
TORSDOF 0
REMARK  Name = ../refined-set-2016/4f3c/4f3c_pocket.pdb
REMARK  209 active torsions:
REMARK  status: ('A' for Active; 'I' for Inactive)
REMARK    1  A    between atoms: _1  and  _3
REMARK    2  A    between atoms: _3  and  _4
REMARK    3  A    between atoms: _6  and  _8
REMARK    4  A    between atoms: _8  and  _9
REMARK    5  A    between atoms: _12  and  _14
REMARK    6  A    between atoms: _14  and  _15
REMARK    7  A    between atoms: _14  and  _17
REMARK    8  A    between atoms: _17  and  _18
REMARK    9  A    between atoms: _18  and  _19
REMARK   10  A    between atoms: _21  and  _23
REMARK   11  A    between atoms: _23  and  _24
REMARK   12  A    between atoms: _23  and  _26
REMARK   13  A    between atoms: _26  and  _27
REMARK   14  A    between atoms: _27  and  _28
REMARK   15  A    between atoms: _31  and  _33
REMARK   16  A    between atoms: _33  and  _34
REMARK   17  A    between atoms: _33  and  _36
REMARK   18  A    between atoms: _36  and  _37
REMARK   19  A    between atoms: _37  and  _38
REMARK   20  A    between atoms: _41  and  _43
REMARK   21  A    between atoms: _43  and  _44
REMARK   22  A    between atoms: _43  and  _46
REMARK   23  A    between atoms: _46  and  _47
REMARK   24  A    between atoms: _49  and  _51
REMARK   25  A    between atoms: _51  and  _52
REMARK   26  A    between atoms: _54  and  _56
REMARK   27  A    between atoms: _56  and  _57
REMARK   28  A    between atoms: _56  and  _59
REMARK   29  A    between atoms: _59  and  _60
REMARK   30  A    between atoms: _63  and  _65
REMARK   31  A    between atoms: _65  and  _66
REMARK   32  A    between atoms: _68  and  _70
REMARK   33  A    between atoms: _70  and  _71
REMARK   34  A    between atoms: _74  and  _76
REMARK   35  A    between atoms: _76  and  _77
REMARK   36  A    between atoms: _80  and  _82
REMARK   37  A    between atoms: _82  and  _83
REMARK   38  A    between atoms: _82  and  _85
REMARK   39  A    between atoms: _85  and  _86
REMARK   40  A    between atoms: _91  and  _93
REMARK   41  A    between atoms: _93  and  _94
REMARK   42  A    between atoms: _93  and  _96
REMARK   43  A    between atoms: _96  and  _97
REMARK   44  A    between atoms: _100  and  _102
REMARK   45  A    between atoms: _102  and  _103
REMARK   46  A    between atoms: _105  and  _107
REMARK   47  A    between atoms: _107  and  _108
REMARK   48  A    between atoms: _107  and  _110
REMARK   49  A    between atoms: _110  and  _111
REMARK   50  A    between atoms: _113  and  _115
REMARK   51  A    between atoms: _115  and  _116
REMARK   52  A    between atoms: _119  and  _121
REMARK   53  A    between atoms: _121  and  _122
REMARK   54  A    between atoms: _124  and  _126
REMARK   55  A    between atoms: _126  and  _127
REMARK   56  A    between atoms: _129  and  _131
REMARK   57  A    between atoms: _131  and  _132
REMARK   58  A    between atoms: _131  and  _134
REMARK   59  A    between atoms: _134  and  _135
REMARK   60  A    between atoms: _138  and  _140
REMARK   61  A    between atoms: _140  and  _141
REMARK   62  A    between atoms: _140  and  _143
REMARK   63  A    between atoms: _143  and  _144
REMARK   64  A    between atoms: _149  and  _151
REMARK   65  A    between atoms: _151  and  _152
REMARK   66  A    between atoms: _151  and  _154
REMARK   67  A    between atoms: _157  and  _159
REMARK   68  A    between atoms: _159  and  _160
REMARK   69  A    between atoms: _159  and  _162
REMARK   70  A    between atoms: _162  and  _163
REMARK   71  A    between atoms: _165  and  _167
REMARK   72  A    between atoms: _167  and  _168
REMARK   73  A    between atoms: _170  and  _172
REMARK   74  A    between atoms: _172  and  _173
REMARK   75  A    between atoms: _172  and  _175
REMARK   76  A    between atoms: _175  and  _176
REMARK   77  A    between atoms: _179  and  _181
REMARK   78  A    between atoms: _181  and  _182
REMARK   79  A    between atoms: _185  and  _187
REMARK   80  A    between atoms: _187  and  _188
REMARK   81  A    between atoms: _187  and  _190
REMARK   82  A    between atoms: _190  and  _191
REMARK   83  A    between atoms: _197  and  _199
REMARK   84  A    between atoms: _199  and  _200
REMARK   85  A    between atoms: _199  and  _202
REMARK   86  A    between atoms: _202  and  _203
REMARK   87  A    between atoms: _206  and  _208
REMARK   88  A    between atoms: _208  and  _209
REMARK   89  A    between atoms: _208  and  _211
REMARK   90  A    between atoms: _211  and  _212
REMARK   91  A    between atoms: _217  and  _219
REMARK   92  A    between atoms: _219  and  _220
REMARK   93  A    between atoms: _222  and  _224
REMARK   94  A    between atoms: _224  and  _225
REMARK   95  A    between atoms: _224  and  _227
REMARK   96  A    between atoms: _227  and  _228
REMARK   97  A    between atoms: _231  and  _233
REMARK   98  A    between atoms: _233  and  _234
REMARK   99  A    between atoms: _233  and  _236
REMARK  100  A    between atoms: _236  and  _237
REMARK  101  A    between atoms: _240  and  _242
REMARK  102  A    between atoms: _242  and  _243
REMARK  103  A    between atoms: _246  and  _248
REMARK  104  A    between atoms: _248  and  _249
REMARK  105  A    between atoms: _248  and  _251
REMARK  106  A    between atoms: _254  and  _256
REMARK  107  A    between atoms: _256  and  _257
REMARK  108  A    between atoms: _256  and  _259
REMARK  109  A    between atoms: _259  and  _260
REMARK  110  A    between atoms: _260  and  _261
REMARK  111  A    between atoms: _264  and  _266
REMARK  112  A    between atoms: _266  and  _267
REMARK  113  A    between atoms: _266  and  _269
REMARK  114  A    between atoms: _269  and  _270
REMARK  115  A    between atoms: _270  and  _271
REMARK  116  A    between atoms: _273  and  _275
REMARK  117  A    between atoms: _275  and  _276
REMARK  118  A    between atoms: _275  and  _278
REMARK  119  A    between atoms: _278  and  _279
REMARK  120  A    between atoms: _279  and  _280
REMARK  121  A    between atoms: _283  and  _285
REMARK  122  A    between atoms: _285  and  _286
REMARK  123  A    between atoms: _289  and  _291
REMARK  124  A    between atoms: _291  and  _292
REMARK  125  A    between atoms: _291  and  _294
REMARK  126  A    between atoms: _294  and  _295
REMARK  127  A    between atoms: _295  and  _296
REMARK  128  A    between atoms: _296  and  _297
REMARK  129  A    between atoms: _306  and  _308
REMARK  130  A    between atoms: _308  and  _309
REMARK  131  A    between atoms: _312  and  _314
REMARK  132  A    between atoms: _314  and  _315
REMARK  133  A    between atoms: _314  and  _317
REMARK  134  A    between atoms: _317  and  _318
REMARK  135  A    between atoms: _321  and  _323
REMARK  136  A    between atoms: _323  and  _324
REMARK  137  A    between atoms: _323  and  _326
REMARK  138  A    between atoms: _326  and  _327
REMARK  139  A    between atoms: _329  and  _331
REMARK  140  A    between atoms: _331  and  _332
REMARK  141  A    between atoms: _331  and  _334
REMARK  142  A    between atoms: _334  and  _335
REMARK  143  A    between atoms: _338  and  _340
REMARK  144  A    between atoms: _340  and  _341
REMARK  145  A    between atoms: _340  and  _343
REMARK  146  A    between atoms: _346  and  _348
REMARK  147  A    between atoms: _348  and  _349
REMARK  148  A    between atoms: _352  and  _354
REMARK  149  A    between atoms: _354  and  _355
REMARK  150  A    between atoms: _354  and  _357
REMARK  151  A    between atoms: _357  and  _358
REMARK  152  A    between atoms: _361  and  _363
REMARK  153  A    between atoms: _363  and  _364
REMARK  154  A    between atoms: _363  and  _366
REMARK  155  A    between atoms: _366  and  _367
REMARK  156  A    between atoms: _367  and  _368
REMARK  157  A    between atoms: _373  and  _375
REMARK  158  A    between atoms: _375  and  _376
REMARK  159  A    between atoms: _375  and  _378
REMARK  160  A    between atoms: _378  and  _379
REMARK  161  A    between atoms: _381  and  _383
REMARK  162  A    between atoms: _383  and  _384
REMARK  163  A    between atoms: _383  and  _386
REMARK  164  A    between atoms: _386  and  _387
REMARK  165  A    between atoms: _392  and  _394
REMARK  166  A    between atoms: _394  and  _395
REMARK  167  A    between atoms: _394  and  _397
REMARK  168  A    between atoms: _397  and  _398
REMARK  169  A    between atoms: _400  and  _402
REMARK  170  A    between atoms: _402  and  _403
REMARK  171  A    between atoms: _402  and  _405
REMARK  172  A    between atoms: _405  and  _406
REMARK  173  A    between atoms: _412  and  _414
REMARK  174  A    between atoms: _414  and  _415
REMARK  175  A    between atoms: _414  and  _417
REMARK  176  A    between atoms: _417  and  _418
REMARK  177  A    between atoms: _421  and  _423
REMARK  178  A    between atoms: _423  and  _424
REMARK  179  A    between atoms: _423  and  _426
REMARK  180  A    between atoms: _426  and  _427
REMARK  181  A    between atoms: _430  and  _432
REMARK  182  A    between atoms: _432  and  _433
REMARK  183  A    between atoms: _436  and  _438
REMARK  184  A    between atoms: _438  and  _439
REMARK  185  A    between atoms: _438  and  _441
REMARK  186  A    between atoms: _441  and  _442
REMARK  187  A    between atoms: _445  and  _447
REMARK  188  A    between atoms: _447  and  _448
REMARK  189  A    between atoms: _447  and  _450
REMARK  190  A    between atoms: _453  and  _455
REMARK  191  A    between atoms: _455  and  _456
REMARK  192  A    between atoms: _459  and  _461
REMARK  193  A    between atoms: _461  and  _462
REMARK  194  A    between atoms: _461  and  _464
REMARK  195  A    between atoms: _464  and  _465
REMARK  196  A    between atoms: _471  and  _473
REMARK  197  A    between atoms: _473  and  _474
REMARK  198  A    between atoms: _476  and  _478
REMARK  199  A    between atoms: _478  and  _479
REMARK  200  A    between atoms: _478  and  _481
REMARK  201  A    between atoms: _481  and  _482
REMARK  202  A    between atoms: _487  and  _488
REMARK  203  A    between atoms: _490  and  _492
REMARK  204  A    between atoms: _492  and  _493
REMARK  205  A    between atoms: _492  and  _495
REMARK  206  A    between atoms: _495  and  _496
REMARK  207  A    between atoms: _500  and  _501
REMARK  208  A    between atoms: _506  and  _508
REMARK  209  A    between atoms: _508  and  _509
REMARK                            x       y       z     vdW  Elec       q    Type
REMARK                         _______ _______ _______ _____ _____    ______ ____
ROOT
ATOM      1  O   HOH     1     -36.349   0.192  10.744  0.00  0.00    +0.000 OA
ENDROOT
TORSDOF 0
REMARK  Name = ../refined-set-2016/4f3c/4f3c_pocket.pdb
REMARK  209 active torsions:
REMARK  status: ('A' for Active; 'I' for Inactive)
REMARK    1  A    between atoms: _1  and  _3
REMARK    2  A    between atoms: _3  and  _4
REMARK    3  A    between atoms: _6  and  _8
REMARK    4  A    between atoms: _8  and  _9
REMARK    5  A    between atoms: _12  and  _14
REMARK    6  A    between atoms: _14  and  _15
REMARK    7  A    between atoms: _14  and  _17
REMARK    8  A    between atoms: _17  and  _18
REMARK    9  A    between atoms: _18  and  _19
REMARK   10  A    between atoms: _21  and  _23
REMARK   11  A    between atoms: _23  and  _24
REMARK   12  A    between atoms: _23  and  _26
REMARK   13  A    between atoms: _26  and  _27
REMARK   14  A    between atoms: _27  and  _28
REMARK   15  A    between atoms: _31  and  _33
REMARK   16  A    between atoms: _33  and  _34
REMARK   17  A    between atoms: _33  and  _36
REMARK   18  A    between atoms: _36  and  _37
REMARK   19  A    between atoms: _37  and  _38
REMARK   20  A    between atoms: _41  and  _43
REMARK   21  A    between atoms: _43  and  _44
REMARK   22  A    between atoms: _43  and  _46
REMARK   23  A    between atoms: _46  and  _47
REMARK   24  A    between atoms: _49  and  _51
REMARK   25  A    between atoms: _51  and  _52
REMARK   26  A    between atoms: _54  and  _56
REMARK   27  A    between atoms: _56  and  _57
REMARK   28  A    between atoms: _56  and  _59
REMARK   29  A    between atoms: _59  and  _60
REMARK   30  A    between atoms: _63  and  _65
REMARK   31  A    between atoms: _65  and  _66
REMARK   32  A    between atoms: _68  and  _70
REMARK   33  A    between atoms: _70  and  _71
REMARK   34  A    between atoms: _74  and  _76
REMARK   35  A    between atoms: _76  and  _77
REMARK   36  A    between atoms: _80  and  _82
REMARK   37  A    between atoms: _82  and  _83
REMARK   38  A    between atoms: _82  and  _85
REMARK   39  A    between atoms: _85  and  _86
REMARK   40  A    between atoms: _91  and  _93
REMARK   41  A    between atoms: _93  and  _94
REMARK   42  A    between atoms: _93  and  _96
REMARK   43  A    between atoms: _96  and  _97
REMARK   44  A    between atoms: _100  and  _102
REMARK   45  A    between atoms: _102  and  _103
REMARK   46  A    between atoms: _105  and  _107
REMARK   47  A    between atoms: _107  and  _108
REMARK   48  A    between atoms: _107  and  _110
REMARK   49  A    between atoms: _110  and  _111
REMARK   50  A    between atoms: _113  and  _115
REMARK   51  A    between atoms: _115  and  _116
REMARK   52  A    between atoms: _119  and  _121
REMARK   53  A    between atoms: _121  and  _122
REMARK   54  A    between atoms: _124  and  _126
REMARK   55  A    between atoms: _126  and  _127
REMARK   56  A    between atoms: _129  and  _131
REMARK   57  A    between atoms: _131  and  _132
REMARK   58  A    between atoms: _131  and  _134
REMARK   59  A    between atoms: _134  and  _135
REMARK   60  A    between atoms: _138  and  _140
REMARK   61  A    between atoms: _140  and  _141
REMARK   62  A    between atoms: _140  and  _143
REMARK   63  A    between atoms: _143  and  _144
REMARK   64  A    between atoms: _149  and  _151
REMARK   65  A    between atoms: _151  and  _152
REMARK   66  A    between atoms: _151  and  _154
REMARK   67  A    between atoms: _157  and  _159
REMARK   68  A    between atoms: _159  and  _160
REMARK   69  A    between atoms: _159  and  _162
REMARK   70  A    between atoms: _162  and  _163
REMARK   71  A    between atoms: _165  and  _167
REMARK   72  A    between atoms: _167  and  _168
REMARK   73  A    between atoms: _170  and  _172
REMARK   74  A    between atoms: _172  and  _173
REMARK   75  A    between atoms: _172  and  _175
REMARK   76  A    between atoms: _175  and  _176
REMARK   77  A    between atoms: _179  and  _181
REMARK   78  A    between atoms: _181  and  _182
REMARK   79  A    between atoms: _185  and  _187
REMARK   80  A    between atoms: _187  and  _188
REMARK   81  A    between atoms: _187  and  _190
REMARK   82  A    between atoms: _190  and  _191
REMARK   83  A    between atoms: _197  and  _199
REMARK   84  A    between atoms: _199  and  _200
REMARK   85  A    between atoms: _199  and  _202
REMARK   86  A    between atoms: _202  and  _203
REMARK   87  A    between atoms: _206  and  _208
REMARK   88  A    between atoms: _208  and  _209
REMARK   89  A    between atoms: _208  and  _211
REMARK   90  A    between atoms: _211  and  _212
REMARK   91  A    between atoms: _217  and  _219
REMARK   92  A    between atoms: _219  and  _220
REMARK   93  A    between atoms: _222  and  _224
REMARK   94  A    between atoms: _224  and  _225
REMARK   95  A    between atoms: _224  and  _227
REMARK   96  A    between atoms: _227  and  _228
REMARK   97  A    between atoms: _231  and  _233
REMARK   98  A    between atoms: _233  and  _234
REMARK   99  A    between atoms: _233  and  _236
REMARK  100  A    between atoms: _236  and  _237
REMARK  101  A    between atoms: _240  and  _242
REMARK  102  A    between atoms: _242  and  _243
REMARK  103  A    between atoms: _246  and  _248
REMARK  104  A    between atoms: _248  and  _249
REMARK  105  A    between atoms: _248  and  _251
REMARK  106  A    between atoms: _254  and  _256
REMARK  107  A    between atoms: _256  and  _257
REMARK  108  A    between atoms: _256  and  _259
REMARK  109  A    between atoms: _259  and  _260
REMARK  110  A    between atoms: _260  and  _261
REMARK  111  A    between atoms: _264  and  _266
REMARK  112  A    between atoms: _266  and  _267
REMARK  113  A    between atoms: _266  and  _269
REMARK  114  A    between atoms: _269  and  _270
REMARK  115  A    between atoms: _270  and  _271
REMARK  116  A    between atoms: _273  and  _275
REMARK  117  A    between atoms: _275  and  _276
REMARK  118  A    between atoms: _275  and  _278
REMARK  119  A    between atoms: _278  and  _279
REMARK  120  A    between atoms: _279  and  _280
REMARK  121  A    between atoms: _283  and  _285
REMARK  122  A    between atoms: _285  and  _286
REMARK  123  A    between atoms: _289  and  _291
REMARK  124  A    between atoms: _291  and  _292
REMARK  125  A    between atoms: _291  and  _294
REMARK  126  A    between atoms: _294  and  _295
REMARK  127  A    between atoms: _295  and  _296
REMARK  128  A    between atoms: _296  and  _297
REMARK  129  A    between atoms: _306  and  _308
REMARK  130  A    between atoms: _308  and  _309
REMARK  131  A    between atoms: _312  and  _314
REMARK  132  A    between atoms: _314  and  _315
REMARK  133  A    between atoms: _314  and  _317
REMARK  134  A    between atoms: _317  and  _318
REMARK  135  A    between atoms: _321  and  _323
REMARK  136  A    between atoms: _323  and  _324
REMARK  137  A    between atoms: _323  and  _326
REMARK  138  A    between atoms: _326  and  _327
REMARK  139  A    between atoms: _329  and  _331
REMARK  140  A    between atoms: _331  and  _332
REMARK  141  A    between atoms: _331  and  _334
REMARK  142  A    between atoms: _334  and  _335
REMARK  143  A    between atoms: _338  and  _340
REMARK  144  A    between atoms: _340  and  _341
REMARK  145  A    between atoms: _340  and  _343
REMARK  146  A    between atoms: _346  and  _348
REMARK  147  A    between atoms: _348  and  _349
REMARK  148  A    between atoms: _352  and  _354
REMARK  149  A    between atoms: _354  and  _355
REMARK  150  A    between atoms: _354  and  _357
REMARK  151  A    between atoms: _357  and  _358
REMARK  152  A    between atoms: _361  and  _363
REMARK  153  A    between atoms: _363  and  _364
REMARK  154  A    between atoms: _363  and  _366
REMARK  155  A    between atoms: _366  and  _367
REMARK  156  A    between atoms: _367  and  _368
REMARK  157  A    between atoms: _373  and  _375
REMARK  158  A    between atoms: _375  and  _376
REMARK  159  A    between atoms: _375  and  _378
REMARK  160  A    between atoms: _378  and  _379
REMARK  161  A    between atoms: _381  and  _383
REMARK  162  A    between atoms: _383  and  _384
REMARK  163  A    between atoms: _383  and  _386
REMARK  164  A    between atoms: _386  and  _387
REMARK  165  A    between atoms: _392  and  _394
REMARK  166  A    between atoms: _394  and  _395
REMARK  167  A    between atoms: _394  and  _397
REMARK  168  A    between atoms: _397  and  _398
REMARK  169  A    between atoms: _400  and  _402
REMARK  170  A    between atoms: _402  and  _403
REMARK  171  A    between atoms: _402  and  _405
REMARK  172  A    between atoms: _405  and  _406
REMARK  173  A    between atoms: _412  and  _414
REMARK  174  A    between atoms: _414  and  _415
REMARK  175  A    between atoms: _414  and  _417
REMARK  176  A    between atoms: _417  and  _418
REMARK  177  A    between atoms: _421  and  _423
REMARK  178  A    between atoms: _423  and  _424
REMARK  179  A    between atoms: _423  and  _426
REMARK  180  A    between atoms: _426  and  _427
REMARK  181  A    between atoms: _430  and  _432
REMARK  182  A    between atoms: _432  and  _433
REMARK  183  A    between atoms: _436  and  _438
REMARK  184  A    between atoms: _438  and  _439
REMARK  185  A    between atoms: _438  and  _441
REMARK  186  A    between atoms: _441  and  _442
REMARK  187  A    between atoms: _445  and  _447
REMARK  188  A    between atoms: _447  and  _448
REMARK  189  A    between atoms: _447  and  _450
REMARK  190  A    between atoms: _453  and  _455
REMARK  191  A    between atoms: _455  and  _456
REMARK  192  A    between atoms: _459  and  _461
REMARK  193  A    between atoms: _461  and  _462
REMARK  194  A    between atoms: _461  and  _464
REMARK  195  A    between atoms: _464  and  _465
REMARK  196  A    between atoms: _471  and  _473
REMARK  197  A    between atoms: _473  and  _474
REMARK  198  A    between atoms: _476  and  _478
REMARK  199  A    between atoms: _478  and  _479
REMARK  200  A    between atoms: _478  and  _481
REMARK  201  A    between atoms: _481  and  _482
REMARK  202  A    between atoms: _487  and  _488
REMARK  203  A    between atoms: _490  and  _492
REMARK  204  A    between atoms: _492  and  _493
REMARK  205  A    between atoms: _492  and  _495
REMARK  206  A    between atoms: _495  and  _496
REMARK  207  A    between atoms: _500  and  _501
REMARK  208  A    between atoms: _506  and  _508
REMARK  209  A    between atoms: _508  and  _509
REMARK                            x       y       z     vdW  Elec       q    Type
REMARK                         _______ _______ _______ _____ _____    ______ ____
ROOT
ATOM      1  O   HOH     1     -36.644   1.597  13.226  0.00  0.00    +0.000 OA
ENDROOT
TORSDOF 0
REMARK  Name = ../refined-set-2016/4f3c/4f3c_pocket.pdb
REMARK  209 active torsions:
REMARK  status: ('A' for Active; 'I' for Inactive)
REMARK    1  A    between atoms: _1  and  _3
REMARK    2  A    between atoms: _3  and  _4
REMARK    3  A    between atoms: _6  and  _8
REMARK    4  A    between atoms: _8  and  _9
REMARK    5  A    between atoms: _12  and  _14
REMARK    6  A    between atoms: _14  and  _15
REMARK    7  A    between atoms: _14  and  _17
REMARK    8  A    between atoms: _17  and  _18
REMARK    9  A    between atoms: _18  and  _19
REMARK   10  A    between atoms: _21  and  _23
REMARK   11  A    between atoms: _23  and  _24
REMARK   12  A    between atoms: _23  and  _26
REMARK   13  A    between atoms: _26  and  _27
REMARK   14  A    between atoms: _27  and  _28
REMARK   15  A    between atoms: _31  and  _33
REMARK   16  A    between atoms: _33  and  _34
REMARK   17  A    between atoms: _33  and  _36
REMARK   18  A    between atoms: _36  and  _37
REMARK   19  A    between atoms: _37  and  _38
REMARK   20  A    between atoms: _41  and  _43
REMARK   21  A    between atoms: _43  and  _44
REMARK   22  A    between atoms: _43  and  _46
REMARK   23  A    between atoms: _46  and  _47
REMARK   24  A    between atoms: _49  and  _51
REMARK   25  A    between atoms: _51  and  _52
REMARK   26  A    between atoms: _54  and  _56
REMARK   27  A    between atoms: _56  and  _57
REMARK   28  A    between atoms: _56  and  _59
REMARK   29  A    between atoms: _59  and  _60
REMARK   30  A    between atoms: _63  and  _65
REMARK   31  A    between atoms: _65  and  _66
REMARK   32  A    between atoms: _68  and  _70
REMARK   33  A    between atoms: _70  and  _71
REMARK   34  A    between atoms: _74  and  _76
REMARK   35  A    between atoms: _76  and  _77
REMARK   36  A    between atoms: _80  and  _82
REMARK   37  A    between atoms: _82  and  _83
REMARK   38  A    between atoms: _82  and  _85
REMARK   39  A    between atoms: _85  and  _86
REMARK   40  A    between atoms: _91  and  _93
REMARK   41  A    between atoms: _93  and  _94
REMARK   42  A    between atoms: _93  and  _96
REMARK   43  A    between atoms: _96  and  _97
REMARK   44  A    between atoms: _100  and  _102
REMARK   45  A    between atoms: _102  and  _103
REMARK   46  A    between atoms: _105  and  _107
REMARK   47  A    between atoms: _107  and  _108
REMARK   48  A    between atoms: _107  and  _110
REMARK   49  A    between atoms: _110  and  _111
REMARK   50  A    between atoms: _113  and  _115
REMARK   51  A    between atoms: _115  and  _116
REMARK   52  A    between atoms: _119  and  _121
REMARK   53  A    between atoms: _121  and  _122
REMARK   54  A    between atoms: _124  and  _126
REMARK   55  A    between atoms: _126  and  _127
REMARK   56  A    between atoms: _129  and  _131
REMARK   57  A    between atoms: _131  and  _132
REMARK   58  A    between atoms: _131  and  _134
REMARK   59  A    between atoms: _134  and  _135
REMARK   60  A    between atoms: _138  and  _140
REMARK   61  A    between atoms: _140  and  _141
REMARK   62  A    between atoms: _140  and  _143
REMARK   63  A    between atoms: _143  and  _144
REMARK   64  A    between atoms: _149  and  _151
REMARK   65  A    between atoms: _151  and  _152
REMARK   66  A    between atoms: _151  and  _154
REMARK   67  A    between atoms: _157  and  _159
REMARK   68  A    between atoms: _159  and  _160
REMARK   69  A    between atoms: _159  and  _162
REMARK   70  A    between atoms: _162  and  _163
REMARK   71  A    between atoms: _165  and  _167
REMARK   72  A    between atoms: _167  and  _168
REMARK   73  A    between atoms: _170  and  _172
REMARK   74  A    between atoms: _172  and  _173
REMARK   75  A    between atoms: _172  and  _175
REMARK   76  A    between atoms: _175  and  _176
REMARK   77  A    between atoms: _179  and  _181
REMARK   78  A    between atoms: _181  and  _182
REMARK   79  A    between atoms: _185  and  _187
REMARK   80  A    between atoms: _187  and  _188
REMARK   81  A    between atoms: _187  and  _190
REMARK   82  A    between atoms: _190  and  _191
REMARK   83  A    between atoms: _197  and  _199
REMARK   84  A    between atoms: _199  and  _200
REMARK   85  A    between atoms: _199  and  _202
REMARK   86  A    between atoms: _202  and  _203
REMARK   87  A    between atoms: _206  and  _208
REMARK   88  A    between atoms: _208  and  _209
REMARK   89  A    between atoms: _208  and  _211
REMARK   90  A    between atoms: _211  and  _212
REMARK   91  A    between atoms: _217  and  _219
REMARK   92  A    between atoms: _219  and  _220
REMARK   93  A    between atoms: _222  and  _224
REMARK   94  A    between atoms: _224  and  _225
REMARK   95  A    between atoms: _224  and  _227
REMARK   96  A    between atoms: _227  and  _228
REMARK   97  A    between atoms: _231  and  _233
REMARK   98  A    between atoms: _233  and  _234
REMARK   99  A    between atoms: _233  and  _236
REMARK  100  A    between atoms: _236  and  _237
REMARK  101  A    between atoms: _240  and  _242
REMARK  102  A    between atoms: _242  and  _243
REMARK  103  A    between atoms: _246  and  _248
REMARK  104  A    between atoms: _248  and  _249
REMARK  105  A    between atoms: _248  and  _251
REMARK  106  A    between atoms: _254  and  _256
REMARK  107  A    between atoms: _256  and  _257
REMARK  108  A    between atoms: _256  and  _259
REMARK  109  A    between atoms: _259  and  _260
REMARK  110  A    between atoms: _260  and  _261
REMARK  111  A    between atoms: _264  and  _266
REMARK  112  A    between atoms: _266  and  _267
REMARK  113  A    between atoms: _266  and  _269
REMARK  114  A    between atoms: _269  and  _270
REMARK  115  A    between atoms: _270  and  _271
REMARK  116  A    between atoms: _273  and  _275
REMARK  117  A    between atoms: _275  and  _276
REMARK  118  A    between atoms: _275  and  _278
REMARK  119  A    between atoms: _278  and  _279
REMARK  120  A    between atoms: _279  and  _280
REMARK  121  A    between atoms: _283  and  _285
REMARK  122  A    between atoms: _285  and  _286
REMARK  123  A    between atoms: _289  and  _291
REMARK  124  A    between atoms: _291  and  _292
REMARK  125  A    between atoms: _291  and  _294
REMARK  126  A    between atoms: _294  and  _295
REMARK  127  A    between atoms: _295  and  _296
REMARK  128  A    between atoms: _296  and  _297
REMARK  129  A    between atoms: _306  and  _308
REMARK  130  A    between atoms: _308  and  _309
REMARK  131  A    between atoms: _312  and  _314
REMARK  132  A    between atoms: _314  and  _315
REMARK  133  A    between atoms: _314  and  _317
REMARK  134  A    between atoms: _317  and  _318
REMARK  135  A    between atoms: _321  and  _323
REMARK  136  A    between atoms: _323  and  _324
REMARK  137  A    between atoms: _323  and  _326
REMARK  138  A    between atoms: _326  and  _327
REMARK  139  A    between atoms: _329  and  _331
REMARK  140  A    between atoms: _331  and  _332
REMARK  141  A    between atoms: _331  and  _334
REMARK  142  A    between atoms: _334  and  _335
REMARK  143  A    between atoms: _338  and  _340
REMARK  144  A    between atoms: _340  and  _341
REMARK  145  A    between atoms: _340  and  _343
REMARK  146  A    between atoms: _346  and  _348
REMARK  147  A    between atoms: _348  and  _349
REMARK  148  A    between atoms: _352  and  _354
REMARK  149  A    between atoms: _354  and  _355
REMARK  150  A    between atoms: _354  and  _357
REMARK  151  A    between atoms: _357  and  _358
REMARK  152  A    between atoms: _361  and  _363
REMARK  153  A    between atoms: _363  and  _364
REMARK  154  A    between atoms: _363  and  _366
REMARK  155  A    between atoms: _366  and  _367
REMARK  156  A    between atoms: _367  and  _368
REMARK  157  A    between atoms: _373  and  _375
REMARK  158  A    between atoms: _375  and  _376
REMARK  159  A    between atoms: _375  and  _378
REMARK  160  A    between atoms: _378  and  _379
REMARK  161  A    between atoms: _381  and  _383
REMARK  162  A    between atoms: _383  and  _384
REMARK  163  A    between atoms: _383  and  _386
REMARK  164  A    between atoms: _386  and  _387
REMARK  165  A    between atoms: _392  and  _394
REMARK  166  A    between atoms: _394  and  _395
REMARK  167  A    between atoms: _394  and  _397
REMARK  168  A    between atoms: _397  and  _398
REMARK  169  A    between atoms: _400  and  _402
REMARK  170  A    between atoms: _402  and  _403
REMARK  171  A    between atoms: _402  and  _405
REMARK  172  A    between atoms: _405  and  _406
REMARK  173  A    between atoms: _412  and  _414
REMARK  174  A    between atoms: _414  and  _415
REMARK  175  A    between atoms: _414  and  _417
REMARK  176  A    between atoms: _417  and  _418
REMARK  177  A    between atoms: _421  and  _423
REMARK  178  A    between atoms: _423  and  _424
REMARK  179  A    between atoms: _423  and  _426
REMARK  180  A    between atoms: _426  and  _427
REMARK  181  A    between atoms: _430  and  _432
REMARK  182  A    between atoms: _432  and  _433
REMARK  183  A    between atoms: _436  and  _438
REMARK  184  A    between atoms: _438  and  _439
REMARK  185  A    between atoms: _438  and  _441
REMARK  186  A    between atoms: _441  and  _442
REMARK  187  A    between atoms: _445  and  _447
REMARK  188  A    between atoms: _447  and  _448
REMARK  189  A    between atoms: _447  and  _450
REMARK  190  A    between atoms: _453  and  _455
REMARK  191  A    between atoms: _455  and  _456
REMARK  192  A    between atoms: _459  and  _461
REMARK  193  A    between atoms: _461  and  _462
REMARK  194  A    between atoms: _461  and  _464
REMARK  195  A    between atoms: _464  and  _465
REMARK  196  A    between atoms: _471  and  _473
REMARK  197  A    between atoms: _473  and  _474
REMARK  198  A    between atoms: _476  and  _478
REMARK  199  A    between atoms: _478  and  _479
REMARK  200  A    between atoms: _478  and  _481
REMARK  201  A    between atoms: _481  and  _482
REMARK  202  A    between atoms: _487  and  _488
REMARK  203  A    between atoms: _490  and  _492
REMARK  204  A    between atoms: _492  and  _493
REMARK  205  A    between atoms: _492  and  _495
REMARK  206  A    between atoms: _495  and  _496
REMARK  207  A    between atoms: _500  and  _501
REMARK  208  A    between atoms: _506  and  _508
REMARK  209  A    between atoms: _508  and  _509
REMARK                            x       y       z     vdW  Elec       q    Type
REMARK                         _______ _______ _______ _____ _____    ______ ____
ROOT
ATOM      1  O   HOH     1     -29.840   6.049   7.399  0.00  0.00    +0.000 OA
ENDROOT
TORSDOF 0
REMARK  Name = ../refined-set-2016/4f3c/4f3c_pocket.pdb
REMARK  209 active torsions:
REMARK  status: ('A' for Active; 'I' for Inactive)
REMARK    1  A    between atoms: _1  and  _3
REMARK    2  A    between atoms: _3  and  _4
REMARK    3  A    between atoms: _6  and  _8
REMARK    4  A    between atoms: _8  and  _9
REMARK    5  A    between atoms: _12  and  _14
REMARK    6  A    between atoms: _14  and  _15
REMARK    7  A    between atoms: _14  and  _17
REMARK    8  A    between atoms: _17  and  _18
REMARK    9  A    between atoms: _18  and  _19
REMARK   10  A    between atoms: _21  and  _23
REMARK   11  A    between atoms: _23  and  _24
REMARK   12  A    between atoms: _23  and  _26
REMARK   13  A    between atoms: _26  and  _27
REMARK   14  A    between atoms: _27  and  _28
REMARK   15  A    between atoms: _31  and  _33
REMARK   16  A    between atoms: _33  and  _34
REMARK   17  A    between atoms: _33  and  _36
REMARK   18  A    between atoms: _36  and  _37
REMARK   19  A    between atoms: _37  and  _38
REMARK   20  A    between atoms: _41  and  _43
REMARK   21  A    between atoms: _43  and  _44
REMARK   22  A    between atoms: _43  and  _46
REMARK   23  A    between atoms: _46  and  _47
REMARK   24  A    between atoms: _49  and  _51
REMARK   25  A    between atoms: _51  and  _52
REMARK   26  A    between atoms: _54  and  _56
REMARK   27  A    between atoms: _56  and  _57
REMARK   28  A    between atoms: _56  and  _59
REMARK   29  A    between atoms: _59  and  _60
REMARK   30  A    between atoms: _63  and  _65
REMARK   31  A    between atoms: _65  and  _66
REMARK   32  A    between atoms: _68  and  _70
REMARK   33  A    between atoms: _70  and  _71
REMARK   34  A    between atoms: _74  and  _76
REMARK   35  A    between atoms: _76  and  _77
REMARK   36  A    between atoms: _80  and  _82
REMARK   37  A    between atoms: _82  and  _83
REMARK   38  A    between atoms: _82  and  _85
REMARK   39  A    between atoms: _85  and  _86
REMARK   40  A    between atoms: _91  and  _93
REMARK   41  A    between atoms: _93  and  _94
REMARK   42  A    between atoms: _93  and  _96
REMARK   43  A    between atoms: _96  and  _97
REMARK   44  A    between atoms: _100  and  _102
REMARK   45  A    between atoms: _102  and  _103
REMARK   46  A    between atoms: _105  and  _107
REMARK   47  A    between atoms: _107  and  _108
REMARK   48  A    between atoms: _107  and  _110
REMARK   49  A    between atoms: _110  and  _111
REMARK   50  A    between atoms: _113  and  _115
REMARK   51  A    between atoms: _115  and  _116
REMARK   52  A    between atoms: _119  and  _121
REMARK   53  A    between atoms: _121  and  _122
REMARK   54  A    between atoms: _124  and  _126
REMARK   55  A    between atoms: _126  and  _127
REMARK   56  A    between atoms: _129  and  _131
REMARK   57  A    between atoms: _131  and  _132
REMARK   58  A    between atoms: _131  and  _134
REMARK   59  A    between atoms: _134  and  _135
REMARK   60  A    between atoms: _138  and  _140
REMARK   61  A    between atoms: _140  and  _141
REMARK   62  A    between atoms: _140  and  _143
REMARK   63  A    between atoms: _143  and  _144
REMARK   64  A    between atoms: _149  and  _151
REMARK   65  A    between atoms: _151  and  _152
REMARK   66  A    between atoms: _151  and  _154
REMARK   67  A    between atoms: _157  and  _159
REMARK   68  A    between atoms: _159  and  _160
REMARK   69  A    between atoms: _159  and  _162
REMARK   70  A    between atoms: _162  and  _163
REMARK   71  A    between atoms: _165  and  _167
REMARK   72  A    between atoms: _167  and  _168
REMARK   73  A    between atoms: _170  and  _172
REMARK   74  A    between atoms: _172  and  _173
REMARK   75  A    between atoms: _172  and  _175
REMARK   76  A    between atoms: _175  and  _176
REMARK   77  A    between atoms: _179  and  _181
REMARK   78  A    between atoms: _181  and  _182
REMARK   79  A    between atoms: _185  and  _187
REMARK   80  A    between atoms: _187  and  _188
REMARK   81  A    between atoms: _187  and  _190
REMARK   82  A    between atoms: _190  and  _191
REMARK   83  A    between atoms: _197  and  _199
REMARK   84  A    between atoms: _199  and  _200
REMARK   85  A    between atoms: _199  and  _202
REMARK   86  A    between atoms: _202  and  _203
REMARK   87  A    between atoms: _206  and  _208
REMARK   88  A    between atoms: _208  and  _209
REMARK   89  A    between atoms: _208  and  _211
REMARK   90  A    between atoms: _211  and  _212
REMARK   91  A    between atoms: _217  and  _219
REMARK   92  A    between atoms: _219  and  _220
REMARK   93  A    between atoms: _222  and  _224
REMARK   94  A    between atoms: _224  and  _225
REMARK   95  A    between atoms: _224  and  _227
REMARK   96  A    between atoms: _227  and  _228
REMARK   97  A    between atoms: _231  and  _233
REMARK   98  A    between atoms: _233  and  _234
REMARK   99  A    between atoms: _233  and  _236
REMARK  100  A    between atoms: _236  and  _237
REMARK  101  A    between atoms: _240  and  _242
REMARK  102  A    between atoms: _242  and  _243
REMARK  103  A    between atoms: _246  and  _248
REMARK  104  A    between atoms: _248  and  _249
REMARK  105  A    between atoms: _248  and  _251
REMARK  106  A    between atoms: _254  and  _256
REMARK  107  A    between atoms: _256  and  _257
REMARK  108  A    between atoms: _256  and  _259
REMARK  109  A    between atoms: _259  and  _260
REMARK  110  A    between atoms: _260  and  _261
REMARK  111  A    between atoms: _264  and  _266
REMARK  112  A    between atoms: _266  and  _267
REMARK  113  A    between atoms: _266  and  _269
REMARK  114  A    between atoms: _269  and  _270
REMARK  115  A    between atoms: _270  and  _271
REMARK  116  A    between atoms: _273  and  _275
REMARK  117  A    between atoms: _275  and  _276
REMARK  118  A    between atoms: _275  and  _278
REMARK  119  A    between atoms: _278  and  _279
REMARK  120  A    between atoms: _279  and  _280
REMARK  121  A    between atoms: _283  and  _285
REMARK  122  A    between atoms: _285  and  _286
REMARK  123  A    between atoms: _289  and  _291
REMARK  124  A    between atoms: _291  and  _292
REMARK  125  A    between atoms: _291  and  _294
REMARK  126  A    between atoms: _294  and  _295
REMARK  127  A    between atoms: _295  and  _296
REMARK  128  A    between atoms: _296  and  _297
REMARK  129  A    between atoms: _306  and  _308
REMARK  130  A    between atoms: _308  and  _309
REMARK  131  A    between atoms: _312  and  _314
REMARK  132  A    between atoms: _314  and  _315
REMARK  133  A    between atoms: _314  and  _317
REMARK  134  A    between atoms: _317  and  _318
REMARK  135  A    between atoms: _321  and  _323
REMARK  136  A    between atoms: _323  and  _324
REMARK  137  A    between atoms: _323  and  _326
REMARK  138  A    between atoms: _326  and  _327
REMARK  139  A    between atoms: _329  and  _331
REMARK  140  A    between atoms: _331  and  _332
REMARK  141  A    between atoms: _331  and  _334
REMARK  142  A    between atoms: _334  and  _335
REMARK  143  A    between atoms: _338  and  _340
REMARK  144  A    between atoms: _340  and  _341
REMARK  145  A    between atoms: _340  and  _343
REMARK  146  A    between atoms: _346  and  _348
REMARK  147  A    between atoms: _348  and  _349
REMARK  148  A    between atoms: _352  and  _354
REMARK  149  A    between atoms: _354  and  _355
REMARK  150  A    between atoms: _354  and  _357
REMARK  151  A    between atoms: _357  and  _358
REMARK  152  A    between atoms: _361  and  _363
REMARK  153  A    between atoms: _363  and  _364
REMARK  154  A    between atoms: _363  and  _366
REMARK  155  A    between atoms: _366  and  _367
REMARK  156  A    between atoms: _367  and  _368
REMARK  157  A    between atoms: _373  and  _375
REMARK  158  A    between atoms: _375  and  _376
REMARK  159  A    between atoms: _375  and  _378
REMARK  160  A    between atoms: _378  and  _379
REMARK  161  A    between atoms: _381  and  _383
REMARK  162  A    between atoms: _383  and  _384
REMARK  163  A    between atoms: _383  and  _386
REMARK  164  A    between atoms: _386  and  _387
REMARK  165  A    between atoms: _392  and  _394
REMARK  166  A    between atoms: _394  and  _395
REMARK  167  A    between atoms: _394  and  _397
REMARK  168  A    between atoms: _397  and  _398
REMARK  169  A    between atoms: _400  and  _402
REMARK  170  A    between atoms: _402  and  _403
REMARK  171  A    between atoms: _402  and  _405
REMARK  172  A    between atoms: _405  and  _406
REMARK  173  A    between atoms: _412  and  _414
REMARK  174  A    between atoms: _414  and  _415
REMARK  175  A    between atoms: _414  and  _417
REMARK  176  A    between atoms: _417  and  _418
REMARK  177  A    between atoms: _421  and  _423
REMARK  178  A    between atoms: _423  and  _424
REMARK  179  A    between atoms: _423  and  _426
REMARK  180  A    between atoms: _426  and  _427
REMARK  181  A    between atoms: _430  and  _432
REMARK  182  A    between atoms: _432  and  _433
REMARK  183  A    between atoms: _436  and  _438
REMARK  184  A    between atoms: _438  and  _439
REMARK  185  A    between atoms: _438  and  _441
REMARK  186  A    between atoms: _441  and  _442
REMARK  187  A    between atoms: _445  and  _447
REMARK  188  A    between atoms: _447  and  _448
REMARK  189  A    between atoms: _447  and  _450
REMARK  190  A    between atoms: _453  and  _455
REMARK  191  A    between atoms: _455  and  _456
REMARK  192  A    between atoms: _459  and  _461
REMARK  193  A    between atoms: _461  and  _462
REMARK  194  A    between atoms: _461  and  _464
REMARK  195  A    between atoms: _464  and  _465
REMARK  196  A    between atoms: _471  and  _473
REMARK  197  A    between atoms: _473  and  _474
REMARK  198  A    between atoms: _476  and  _478
REMARK  199  A    between atoms: _478  and  _479
REMARK  200  A    between atoms: _478  and  _481
REMARK  201  A    between atoms: _481  and  _482
REMARK  202  A    between atoms: _487  and  _488
REMARK  203  A    between atoms: _490  and  _492
REMARK  204  A    between atoms: _492  and  _493
REMARK  205  A    between atoms: _492  and  _495
REMARK  206  A    between atoms: _495  and  _496
REMARK  207  A    between atoms: _500  and  _501
REMARK  208  A    between atoms: _506  and  _508
REMARK  209  A    between atoms: _508  and  _509
REMARK                            x       y       z     vdW  Elec       q    Type
REMARK                         _______ _______ _______ _____ _____    ______ ____
ROOT
ATOM      1  O   HOH     1     -35.164   8.512   6.956  0.00  0.00    +0.000 OA
ENDROOT
TORSDOF 0
REMARK  Name = ../refined-set-2016/4f3c/4f3c_pocket.pdb
REMARK  209 active torsions:
REMARK  status: ('A' for Active; 'I' for Inactive)
REMARK    1  A    between atoms: _1  and  _3
REMARK    2  A    between atoms: _3  and  _4
REMARK    3  A    between atoms: _6  and  _8
REMARK    4  A    between atoms: _8  and  _9
REMARK    5  A    between atoms: _12  and  _14
REMARK    6  A    between atoms: _14  and  _15
REMARK    7  A    between atoms: _14  and  _17
REMARK    8  A    between atoms: _17  and  _18
REMARK    9  A    between atoms: _18  and  _19
REMARK   10  A    between atoms: _21  and  _23
REMARK   11  A    between atoms: _23  and  _24
REMARK   12  A    between atoms: _23  and  _26
REMARK   13  A    between atoms: _26  and  _27
REMARK   14  A    between atoms: _27  and  _28
REMARK   15  A    between atoms: _31  and  _33
REMARK   16  A    between atoms: _33  and  _34
REMARK   17  A    between atoms: _33  and  _36
REMARK   18  A    between atoms: _36  and  _37
REMARK   19  A    between atoms: _37  and  _38
REMARK   20  A    between atoms: _41  and  _43
REMARK   21  A    between atoms: _43  and  _44
REMARK   22  A    between atoms: _43  and  _46
REMARK   23  A    between atoms: _46  and  _47
REMARK   24  A    between atoms: _49  and  _51
REMARK   25  A    between atoms: _51  and  _52
REMARK   26  A    between atoms: _54  and  _56
REMARK   27  A    between atoms: _56  and  _57
REMARK   28  A    between atoms: _56  and  _59
REMARK   29  A    between atoms: _59  and  _60
REMARK   30  A    between atoms: _63  and  _65
REMARK   31  A    between atoms: _65  and  _66
REMARK   32  A    between atoms: _68  and  _70
REMARK   33  A    between atoms: _70  and  _71
REMARK   34  A    between atoms: _74  and  _76
REMARK   35  A    between atoms: _76  and  _77
REMARK   36  A    between atoms: _80  and  _82
REMARK   37  A    between atoms: _82  and  _83
REMARK   38  A    between atoms: _82  and  _85
REMARK   39  A    between atoms: _85  and  _86
REMARK   40  A    between atoms: _91  and  _93
REMARK   41  A    between atoms: _93  and  _94
REMARK   42  A    between atoms: _93  and  _96
REMARK   43  A    between atoms: _96  and  _97
REMARK   44  A    between atoms: _100  and  _102
REMARK   45  A    between atoms: _102  and  _103
REMARK   46  A    between atoms: _105  and  _107
REMARK   47  A    between atoms: _107  and  _108
REMARK   48  A    between atoms: _107  and  _110
REMARK   49  A    between atoms: _110  and  _111
REMARK   50  A    between atoms: _113  and  _115
REMARK   51  A    between atoms: _115  and  _116
REMARK   52  A    between atoms: _119  and  _121
REMARK   53  A    between atoms: _121  and  _122
REMARK   54  A    between atoms: _124  and  _126
REMARK   55  A    between atoms: _126  and  _127
REMARK   56  A    between atoms: _129  and  _131
REMARK   57  A    between atoms: _131  and  _132
REMARK   58  A    between atoms: _131  and  _134
REMARK   59  A    between atoms: _134  and  _135
REMARK   60  A    between atoms: _138  and  _140
REMARK   61  A    between atoms: _140  and  _141
REMARK   62  A    between atoms: _140  and  _143
REMARK   63  A    between atoms: _143  and  _144
REMARK   64  A    between atoms: _149  and  _151
REMARK   65  A    between atoms: _151  and  _152
REMARK   66  A    between atoms: _151  and  _154
REMARK   67  A    between atoms: _157  and  _159
REMARK   68  A    between atoms: _159  and  _160
REMARK   69  A    between atoms: _159  and  _162
REMARK   70  A    between atoms: _162  and  _163
REMARK   71  A    between atoms: _165  and  _167
REMARK   72  A    between atoms: _167  and  _168
REMARK   73  A    between atoms: _170  and  _172
REMARK   74  A    between atoms: _172  and  _173
REMARK   75  A    between atoms: _172  and  _175
REMARK   76  A    between atoms: _175  and  _176
REMARK   77  A    between atoms: _179  and  _181
REMARK   78  A    between atoms: _181  and  _182
REMARK   79  A    between atoms: _185  and  _187
REMARK   80  A    between atoms: _187  and  _188
REMARK   81  A    between atoms: _187  and  _190
REMARK   82  A    between atoms: _190  and  _191
REMARK   83  A    between atoms: _197  and  _199
REMARK   84  A    between atoms: _199  and  _200
REMARK   85  A    between atoms: _199  and  _202
REMARK   86  A    between atoms: _202  and  _203
REMARK   87  A    between atoms: _206  and  _208
REMARK   88  A    between atoms: _208  and  _209
REMARK   89  A    between atoms: _208  and  _211
REMARK   90  A    between atoms: _211  and  _212
REMARK   91  A    between atoms: _217  and  _219
REMARK   92  A    between atoms: _219  and  _220
REMARK   93  A    between atoms: _222  and  _224
REMARK   94  A    between atoms: _224  and  _225
REMARK   95  A    between atoms: _224  and  _227
REMARK   96  A    between atoms: _227  and  _228
REMARK   97  A    between atoms: _231  and  _233
REMARK   98  A    between atoms: _233  and  _234
REMARK   99  A    between atoms: _233  and  _236
REMARK  100  A    between atoms: _236  and  _237
REMARK  101  A    between atoms: _240  and  _242
REMARK  102  A    between atoms: _242  and  _243
REMARK  103  A    between atoms: _246  and  _248
REMARK  104  A    between atoms: _248  and  _249
REMARK  105  A    between atoms: _248  and  _251
REMARK  106  A    between atoms: _254  and  _256
REMARK  107  A    between atoms: _256  and  _257
REMARK  108  A    between atoms: _256  and  _259
REMARK  109  A    between atoms: _259  and  _260
REMARK  110  A    between atoms: _260  and  _261
REMARK  111  A    between atoms: _264  and  _266
REMARK  112  A    between atoms: _266  and  _267
REMARK  113  A    between atoms: _266  and  _269
REMARK  114  A    between atoms: _269  and  _270
REMARK  115  A    between atoms: _270  and  _271
REMARK  116  A    between atoms: _273  and  _275
REMARK  117  A    between atoms: _275  and  _276
REMARK  118  A    between atoms: _275  and  _278
REMARK  119  A    between atoms: _278  and  _279
REMARK  120  A    between atoms: _279  and  _280
REMARK  121  A    between atoms: _283  and  _285
REMARK  122  A    between atoms: _285  and  _286
REMARK  123  A    between atoms: _289  and  _291
REMARK  124  A    between atoms: _291  and  _292
REMARK  125  A    between atoms: _291  and  _294
REMARK  126  A    between atoms: _294  and  _295
REMARK  127  A    between atoms: _295  and  _296
REMARK  128  A    between atoms: _296  and  _297
REMARK  129  A    between atoms: _306  and  _308
REMARK  130  A    between atoms: _308  and  _309
REMARK  131  A    between atoms: _312  and  _314
REMARK  132  A    between atoms: _314  and  _315
REMARK  133  A    between atoms: _314  and  _317
REMARK  134  A    between atoms: _317  and  _318
REMARK  135  A    between atoms: _321  and  _323
REMARK  136  A    between atoms: _323  and  _324
REMARK  137  A    between atoms: _323  and  _326
REMARK  138  A    between atoms: _326  and  _327
REMARK  139  A    between atoms: _329  and  _331
REMARK  140  A    between atoms: _331  and  _332
REMARK  141  A    between atoms: _331  and  _334
REMARK  142  A    between atoms: _334  and  _335
REMARK  143  A    between atoms: _338  and  _340
REMARK  144  A    between atoms: _340  and  _341
REMARK  145  A    between atoms: _340  and  _343
REMARK  146  A    between atoms: _346  and  _348
REMARK  147  A    between atoms: _348  and  _349
REMARK  148  A    between atoms: _352  and  _354
REMARK  149  A    between atoms: _354  and  _355
REMARK  150  A    between atoms: _354  and  _357
REMARK  151  A    between atoms: _357  and  _358
REMARK  152  A    between atoms: _361  and  _363
REMARK  153  A    between atoms: _363  and  _364
REMARK  154  A    between atoms: _363  and  _366
REMARK  155  A    between atoms: _366  and  _367
REMARK  156  A    between atoms: _367  and  _368
REMARK  157  A    between atoms: _373  and  _375
REMARK  158  A    between atoms: _375  and  _376
REMARK  159  A    between atoms: _375  and  _378
REMARK  160  A    between atoms: _378  and  _379
REMARK  161  A    between atoms: _381  and  _383
REMARK  162  A    between atoms: _383  and  _384
REMARK  163  A    between atoms: _383  and  _386
REMARK  164  A    between atoms: _386  and  _387
REMARK  165  A    between atoms: _392  and  _394
REMARK  166  A    between atoms: _394  and  _395
REMARK  167  A    between atoms: _394  and  _397
REMARK  168  A    between atoms: _397  and  _398
REMARK  169  A    between atoms: _400  and  _402
REMARK  170  A    between atoms: _402  and  _403
REMARK  171  A    between atoms: _402  and  _405
REMARK  172  A    between atoms: _405  and  _406
REMARK  173  A    between atoms: _412  and  _414
REMARK  174  A    between atoms: _414  and  _415
REMARK  175  A    between atoms: _414  and  _417
REMARK  176  A    between atoms: _417  and  _418
REMARK  177  A    between atoms: _421  and  _423
REMARK  178  A    between atoms: _423  and  _424
REMARK  179  A    between atoms: _423  and  _426
REMARK  180  A    between atoms: _426  and  _427
REMARK  181  A    between atoms: _430  and  _432
REMARK  182  A    between atoms: _432  and  _433
REMARK  183  A    between atoms: _436  and  _438
REMARK  184  A    between atoms: _438  and  _439
REMARK  185  A    between atoms: _438  and  _441
REMARK  186  A    between atoms: _441  and  _442
REMARK  187  A    between atoms: _445  and  _447
REMARK  188  A    between atoms: _447  and  _448
REMARK  189  A    between atoms: _447  and  _450
REMARK  190  A    between atoms: _453  and  _455
REMARK  191  A    between atoms: _455  and  _456
REMARK  192  A    between atoms: _459  and  _461
REMARK  193  A    between atoms: _461  and  _462
REMARK  194  A    between atoms: _461  and  _464
REMARK  195  A    between atoms: _464  and  _465
REMARK  196  A    between atoms: _471  and  _473
REMARK  197  A    between atoms: _473  and  _474
REMARK  198  A    between atoms: _476  and  _478
REMARK  199  A    between atoms: _478  and  _479
REMARK  200  A    between atoms: _478  and  _481
REMARK  201  A    between atoms: _481  and  _482
REMARK  202  A    between atoms: _487  and  _488
REMARK  203  A    between atoms: _490  and  _492
REMARK  204  A    between atoms: _492  and  _493
REMARK  205  A    between atoms: _492  and  _495
REMARK  206  A    between atoms: _495  and  _496
REMARK  207  A    between atoms: _500  and  _501
REMARK  208  A    between atoms: _506  and  _508
REMARK  209  A    between atoms: _508  and  _509
REMARK                            x       y       z     vdW  Elec       q    Type
REMARK                         _______ _______ _______ _____ _____    ______ ____
ROOT
ATOM      1  O   HOH     1     -33.227   8.406   9.092  0.00  0.00    +0.000 OA
ENDROOT
TORSDOF 0
REMARK  Name = ../refined-set-2016/4f3c/4f3c_pocket.pdb
REMARK  209 active torsions:
REMARK  status: ('A' for Active; 'I' for Inactive)
REMARK    1  A    between atoms: _1  and  _3
REMARK    2  A    between atoms: _3  and  _4
REMARK    3  A    between atoms: _6  and  _8
REMARK    4  A    between atoms: _8  and  _9
REMARK    5  A    between atoms: _12  and  _14
REMARK    6  A    between atoms: _14  and  _15
REMARK    7  A    between atoms: _14  and  _17
REMARK    8  A    between atoms: _17  and  _18
REMARK    9  A    between atoms: _18  and  _19
REMARK   10  A    between atoms: _21  and  _23
REMARK   11  A    between atoms: _23  and  _24
REMARK   12  A    between atoms: _23  and  _26
REMARK   13  A    between atoms: _26  and  _27
REMARK   14  A    between atoms: _27  and  _28
REMARK   15  A    between atoms: _31  and  _33
REMARK   16  A    between atoms: _33  and  _34
REMARK   17  A    between atoms: _33  and  _36
REMARK   18  A    between atoms: _36  and  _37
REMARK   19  A    between atoms: _37  and  _38
REMARK   20  A    between atoms: _41  and  _43
REMARK   21  A    between atoms: _43  and  _44
REMARK   22  A    between atoms: _43  and  _46
REMARK   23  A    between atoms: _46  and  _47
REMARK   24  A    between atoms: _49  and  _51
REMARK   25  A    between atoms: _51  and  _52
REMARK   26  A    between atoms: _54  and  _56
REMARK   27  A    between atoms: _56  and  _57
REMARK   28  A    between atoms: _56  and  _59
REMARK   29  A    between atoms: _59  and  _60
REMARK   30  A    between atoms: _63  and  _65
REMARK   31  A    between atoms: _65  and  _66
REMARK   32  A    between atoms: _68  and  _70
REMARK   33  A    between atoms: _70  and  _71
REMARK   34  A    between atoms: _74  and  _76
REMARK   35  A    between atoms: _76  and  _77
REMARK   36  A    between atoms: _80  and  _82
REMARK   37  A    between atoms: _82  and  _83
REMARK   38  A    between atoms: _82  and  _85
REMARK   39  A    between atoms: _85  and  _86
REMARK   40  A    between atoms: _91  and  _93
REMARK   41  A    between atoms: _93  and  _94
REMARK   42  A    between atoms: _93  and  _96
REMARK   43  A    between atoms: _96  and  _97
REMARK   44  A    between atoms: _100  and  _102
REMARK   45  A    between atoms: _102  and  _103
REMARK   46  A    between atoms: _105  and  _107
REMARK   47  A    between atoms: _107  and  _108
REMARK   48  A    between atoms: _107  and  _110
REMARK   49  A    between atoms: _110  and  _111
REMARK   50  A    between atoms: _113  and  _115
REMARK   51  A    between atoms: _115  and  _116
REMARK   52  A    between atoms: _119  and  _121
REMARK   53  A    between atoms: _121  and  _122
REMARK   54  A    between atoms: _124  and  _126
REMARK   55  A    between atoms: _126  and  _127
REMARK   56  A    between atoms: _129  and  _131
REMARK   57  A    between atoms: _131  and  _132
REMARK   58  A    between atoms: _131  and  _134
REMARK   59  A    between atoms: _134  and  _135
REMARK   60  A    between atoms: _138  and  _140
REMARK   61  A    between atoms: _140  and  _141
REMARK   62  A    between atoms: _140  and  _143
REMARK   63  A    between atoms: _143  and  _144
REMARK   64  A    between atoms: _149  and  _151
REMARK   65  A    between atoms: _151  and  _152
REMARK   66  A    between atoms: _151  and  _154
REMARK   67  A    between atoms: _157  and  _159
REMARK   68  A    between atoms: _159  and  _160
REMARK   69  A    between atoms: _159  and  _162
REMARK   70  A    between atoms: _162  and  _163
REMARK   71  A    between atoms: _165  and  _167
REMARK   72  A    between atoms: _167  and  _168
REMARK   73  A    between atoms: _170  and  _172
REMARK   74  A    between atoms: _172  and  _173
REMARK   75  A    between atoms: _172  and  _175
REMARK   76  A    between atoms: _175  and  _176
REMARK   77  A    between atoms: _179  and  _181
REMARK   78  A    between atoms: _181  and  _182
REMARK   79  A    between atoms: _185  and  _187
REMARK   80  A    between atoms: _187  and  _188
REMARK   81  A    between atoms: _187  and  _190
REMARK   82  A    between atoms: _190  and  _191
REMARK   83  A    between atoms: _197  and  _199
REMARK   84  A    between atoms: _199  and  _200
REMARK   85  A    between atoms: _199  and  _202
REMARK   86  A    between atoms: _202  and  _203
REMARK   87  A    between atoms: _206  and  _208
REMARK   88  A    between atoms: _208  and  _209
REMARK   89  A    between atoms: _208  and  _211
REMARK   90  A    between atoms: _211  and  _212
REMARK   91  A    between atoms: _217  and  _219
REMARK   92  A    between atoms: _219  and  _220
REMARK   93  A    between atoms: _222  and  _224
REMARK   94  A    between atoms: _224  and  _225
REMARK   95  A    between atoms: _224  and  _227
REMARK   96  A    between atoms: _227  and  _228
REMARK   97  A    between atoms: _231  and  _233
REMARK   98  A    between atoms: _233  and  _234
REMARK   99  A    between atoms: _233  and  _236
REMARK  100  A    between atoms: _236  and  _237
REMARK  101  A    between atoms: _240  and  _242
REMARK  102  A    between atoms: _242  and  _243
REMARK  103  A    between atoms: _246  and  _248
REMARK  104  A    between atoms: _248  and  _249
REMARK  105  A    between atoms: _248  and  _251
REMARK  106  A    between atoms: _254  and  _256
REMARK  107  A    between atoms: _256  and  _257
REMARK  108  A    between atoms: _256  and  _259
REMARK  109  A    between atoms: _259  and  _260
REMARK  110  A    between atoms: _260  and  _261
REMARK  111  A    between atoms: _264  and  _266
REMARK  112  A    between atoms: _266  and  _267
REMARK  113  A    between atoms: _266  and  _269
REMARK  114  A    between atoms: _269  and  _270
REMARK  115  A    between atoms: _270  and  _271
REMARK  116  A    between atoms: _273  and  _275
REMARK  117  A    between atoms: _275  and  _276
REMARK  118  A    between atoms: _275  and  _278
REMARK  119  A    between atoms: _278  and  _279
REMARK  120  A    between atoms: _279  and  _280
REMARK  121  A    between atoms: _283  and  _285
REMARK  122  A    between atoms: _285  and  _286
REMARK  123  A    between atoms: _289  and  _291
REMARK  124  A    between atoms: _291  and  _292
REMARK  125  A    between atoms: _291  and  _294
REMARK  126  A    between atoms: _294  and  _295
REMARK  127  A    between atoms: _295  and  _296
REMARK  128  A    between atoms: _296  and  _297
REMARK  129  A    between atoms: _306  and  _308
REMARK  130  A    between atoms: _308  and  _309
REMARK  131  A    between atoms: _312  and  _314
REMARK  132  A    between atoms: _314  and  _315
REMARK  133  A    between atoms: _314  and  _317
REMARK  134  A    between atoms: _317  and  _318
REMARK  135  A    between atoms: _321  and  _323
REMARK  136  A    between atoms: _323  and  _324
REMARK  137  A    between atoms: _323  and  _326
REMARK  138  A    between atoms: _326  and  _327
REMARK  139  A    between atoms: _329  and  _331
REMARK  140  A    between atoms: _331  and  _332
REMARK  141  A    between atoms: _331  and  _334
REMARK  142  A    between atoms: _334  and  _335
REMARK  143  A    between atoms: _338  and  _340
REMARK  144  A    between atoms: _340  and  _341
REMARK  145  A    between atoms: _340  and  _343
REMARK  146  A    between atoms: _346  and  _348
REMARK  147  A    between atoms: _348  and  _349
REMARK  148  A    between atoms: _352  and  _354
REMARK  149  A    between atoms: _354  and  _355
REMARK  150  A    between atoms: _354  and  _357
REMARK  151  A    between atoms: _357  and  _358
REMARK  152  A    between atoms: _361  and  _363
REMARK  153  A    between atoms: _363  and  _364
REMARK  154  A    between atoms: _363  and  _366
REMARK  155  A    between atoms: _366  and  _367
REMARK  156  A    between atoms: _367  and  _368
REMARK  157  A    between atoms: _373  and  _375
REMARK  158  A    between atoms: _375  and  _376
REMARK  159  A    between atoms: _375  and  _378
REMARK  160  A    between atoms: _378  and  _379
REMARK  161  A    between atoms: _381  and  _383
REMARK  162  A    between atoms: _383  and  _384
REMARK  163  A    between atoms: _383  and  _386
REMARK  164  A    between atoms: _386  and  _387
REMARK  165  A    between atoms: _392  and  _394
REMARK  166  A    between atoms: _394  and  _395
REMARK  167  A    between atoms: _394  and  _397
REMARK  168  A    between atoms: _397  and  _398
REMARK  169  A    between atoms: _400  and  _402
REMARK  170  A    between atoms: _402  and  _403
REMARK  171  A    between atoms: _402  and  _405
REMARK  172  A    between atoms: _405  and  _406
REMARK  173  A    between atoms: _412  and  _414
REMARK  174  A    between atoms: _414  and  _415
REMARK  175  A    between atoms: _414  and  _417
REMARK  176  A    between atoms: _417  and  _418
REMARK  177  A    between atoms: _421  and  _423
REMARK  178  A    between atoms: _423  and  _424
REMARK  179  A    between atoms: _423  and  _426
REMARK  180  A    between atoms: _426  and  _427
REMARK  181  A    between atoms: _430  and  _432
REMARK  182  A    between atoms: _432  and  _433
REMARK  183  A    between atoms: _436  and  _438
REMARK  184  A    between atoms: _438  and  _439
REMARK  185  A    between atoms: _438  and  _441
REMARK  186  A    between atoms: _441  and  _442
REMARK  187  A    between atoms: _445  and  _447
REMARK  188  A    between atoms: _447  and  _448
REMARK  189  A    between atoms: _447  and  _450
REMARK  190  A    between atoms: _453  and  _455
REMARK  191  A    between atoms: _455  and  _456
REMARK  192  A    between atoms: _459  and  _461
REMARK  193  A    between atoms: _461  and  _462
REMARK  194  A    between atoms: _461  and  _464
REMARK  195  A    between atoms: _464  and  _465
REMARK  196  A    between atoms: _471  and  _473
REMARK  197  A    between atoms: _473  and  _474
REMARK  198  A    between atoms: _476  and  _478
REMARK  199  A    between atoms: _478  and  _479
REMARK  200  A    between atoms: _478  and  _481
REMARK  201  A    between atoms: _481  and  _482
REMARK  202  A    between atoms: _487  and  _488
REMARK  203  A    between atoms: _490  and  _492
REMARK  204  A    between atoms: _492  and  _493
REMARK  205  A    between atoms: _492  and  _495
REMARK  206  A    between atoms: _495  and  _496
REMARK  207  A    between atoms: _500  and  _501
REMARK  208  A    between atoms: _506  and  _508
REMARK  209  A    between atoms: _508  and  _509
REMARK                            x       y       z     vdW  Elec       q    Type
REMARK                         _______ _______ _______ _____ _____    ______ ____
ROOT
ATOM      1  O   HOH     1     -32.094 -11.744   0.806  0.00  0.00    +0.000 OA
ENDROOT
TORSDOF 0
REMARK  Name = ../refined-set-2016/4f3c/4f3c_pocket.pdb
REMARK  209 active torsions:
REMARK  status: ('A' for Active; 'I' for Inactive)
REMARK    1  A    between atoms: _1  and  _3
REMARK    2  A    between atoms: _3  and  _4
REMARK    3  A    between atoms: _6  and  _8
REMARK    4  A    between atoms: _8  and  _9
REMARK    5  A    between atoms: _12  and  _14
REMARK    6  A    between atoms: _14  and  _15
REMARK    7  A    between atoms: _14  and  _17
REMARK    8  A    between atoms: _17  and  _18
REMARK    9  A    between atoms: _18  and  _19
REMARK   10  A    between atoms: _21  and  _23
REMARK   11  A    between atoms: _23  and  _24
REMARK   12  A    between atoms: _23  and  _26
REMARK   13  A    between atoms: _26  and  _27
REMARK   14  A    between atoms: _27  and  _28
REMARK   15  A    between atoms: _31  and  _33
REMARK   16  A    between atoms: _33  and  _34
REMARK   17  A    between atoms: _33  and  _36
REMARK   18  A    between atoms: _36  and  _37
REMARK   19  A    between atoms: _37  and  _38
REMARK   20  A    between atoms: _41  and  _43
REMARK   21  A    between atoms: _43  and  _44
REMARK   22  A    between atoms: _43  and  _46
REMARK   23  A    between atoms: _46  and  _47
REMARK   24  A    between atoms: _49  and  _51
REMARK   25  A    between atoms: _51  and  _52
REMARK   26  A    between atoms: _54  and  _56
REMARK   27  A    between atoms: _56  and  _57
REMARK   28  A    between atoms: _56  and  _59
REMARK   29  A    between atoms: _59  and  _60
REMARK   30  A    between atoms: _63  and  _65
REMARK   31  A    between atoms: _65  and  _66
REMARK   32  A    between atoms: _68  and  _70
REMARK   33  A    between atoms: _70  and  _71
REMARK   34  A    between atoms: _74  and  _76
REMARK   35  A    between atoms: _76  and  _77
REMARK   36  A    between atoms: _80  and  _82
REMARK   37  A    between atoms: _82  and  _83
REMARK   38  A    between atoms: _82  and  _85
REMARK   39  A    between atoms: _85  and  _86
REMARK   40  A    between atoms: _91  and  _93
REMARK   41  A    between atoms: _93  and  _94
REMARK   42  A    between atoms: _93  and  _96
REMARK   43  A    between atoms: _96  and  _97
REMARK   44  A    between atoms: _100  and  _102
REMARK   45  A    between atoms: _102  and  _103
REMARK   46  A    between atoms: _105  and  _107
REMARK   47  A    between atoms: _107  and  _108
REMARK   48  A    between atoms: _107  and  _110
REMARK   49  A    between atoms: _110  and  _111
REMARK   50  A    between atoms: _113  and  _115
REMARK   51  A    between atoms: _115  and  _116
REMARK   52  A    between atoms: _119  and  _121
REMARK   53  A    between atoms: _121  and  _122
REMARK   54  A    between atoms: _124  and  _126
REMARK   55  A    between atoms: _126  and  _127
REMARK   56  A    between atoms: _129  and  _131
REMARK   57  A    between atoms: _131  and  _132
REMARK   58  A    between atoms: _131  and  _134
REMARK   59  A    between atoms: _134  and  _135
REMARK   60  A    between atoms: _138  and  _140
REMARK   61  A    between atoms: _140  and  _141
REMARK   62  A    between atoms: _140  and  _143
REMARK   63  A    between atoms: _143  and  _144
REMARK   64  A    between atoms: _149  and  _151
REMARK   65  A    between atoms: _151  and  _152
REMARK   66  A    between atoms: _151  and  _154
REMARK   67  A    between atoms: _157  and  _159
REMARK   68  A    between atoms: _159  and  _160
REMARK   69  A    between atoms: _159  and  _162
REMARK   70  A    between atoms: _162  and  _163
REMARK   71  A    between atoms: _165  and  _167
REMARK   72  A    between atoms: _167  and  _168
REMARK   73  A    between atoms: _170  and  _172
REMARK   74  A    between atoms: _172  and  _173
REMARK   75  A    between atoms: _172  and  _175
REMARK   76  A    between atoms: _175  and  _176
REMARK   77  A    between atoms: _179  and  _181
REMARK   78  A    between atoms: _181  and  _182
REMARK   79  A    between atoms: _185  and  _187
REMARK   80  A    between atoms: _187  and  _188
REMARK   81  A    between atoms: _187  and  _190
REMARK   82  A    between atoms: _190  and  _191
REMARK   83  A    between atoms: _197  and  _199
REMARK   84  A    between atoms: _199  and  _200
REMARK   85  A    between atoms: _199  and  _202
REMARK   86  A    between atoms: _202  and  _203
REMARK   87  A    between atoms: _206  and  _208
REMARK   88  A    between atoms: _208  and  _209
REMARK   89  A    between atoms: _208  and  _211
REMARK   90  A    between atoms: _211  and  _212
REMARK   91  A    between atoms: _217  and  _219
REMARK   92  A    between atoms: _219  and  _220
REMARK   93  A    between atoms: _222  and  _224
REMARK   94  A    between atoms: _224  and  _225
REMARK   95  A    between atoms: _224  and  _227
REMARK   96  A    between atoms: _227  and  _228
REMARK   97  A    between atoms: _231  and  _233
REMARK   98  A    between atoms: _233  and  _234
REMARK   99  A    between atoms: _233  and  _236
REMARK  100  A    between atoms: _236  and  _237
REMARK  101  A    between atoms: _240  and  _242
REMARK  102  A    between atoms: _242  and  _243
REMARK  103  A    between atoms: _246  and  _248
REMARK  104  A    between atoms: _248  and  _249
REMARK  105  A    between atoms: _248  and  _251
REMARK  106  A    between atoms: _254  and  _256
REMARK  107  A    between atoms: _256  and  _257
REMARK  108  A    between atoms: _256  and  _259
REMARK  109  A    between atoms: _259  and  _260
REMARK  110  A    between atoms: _260  and  _261
REMARK  111  A    between atoms: _264  and  _266
REMARK  112  A    between atoms: _266  and  _267
REMARK  113  A    between atoms: _266  and  _269
REMARK  114  A    between atoms: _269  and  _270
REMARK  115  A    between atoms: _270  and  _271
REMARK  116  A    between atoms: _273  and  _275
REMARK  117  A    between atoms: _275  and  _276
REMARK  118  A    between atoms: _275  and  _278
REMARK  119  A    between atoms: _278  and  _279
REMARK  120  A    between atoms: _279  and  _280
REMARK  121  A    between atoms: _283  and  _285
REMARK  122  A    between atoms: _285  and  _286
REMARK  123  A    between atoms: _289  and  _291
REMARK  124  A    between atoms: _291  and  _292
REMARK  125  A    between atoms: _291  and  _294
REMARK  126  A    between atoms: _294  and  _295
REMARK  127  A    between atoms: _295  and  _296
REMARK  128  A    between atoms: _296  and  _297
REMARK  129  A    between atoms: _306  and  _308
REMARK  130  A    between atoms: _308  and  _309
REMARK  131  A    between atoms: _312  and  _314
REMARK  132  A    between atoms: _314  and  _315
REMARK  133  A    between atoms: _314  and  _317
REMARK  134  A    between atoms: _317  and  _318
REMARK  135  A    between atoms: _321  and  _323
REMARK  136  A    between atoms: _323  and  _324
REMARK  137  A    between atoms: _323  and  _326
REMARK  138  A    between atoms: _326  and  _327
REMARK  139  A    between atoms: _329  and  _331
REMARK  140  A    between atoms: _331  and  _332
REMARK  141  A    between atoms: _331  and  _334
REMARK  142  A    between atoms: _334  and  _335
REMARK  143  A    between atoms: _338  and  _340
REMARK  144  A    between atoms: _340  and  _341
REMARK  145  A    between atoms: _340  and  _343
REMARK  146  A    between atoms: _346  and  _348
REMARK  147  A    between atoms: _348  and  _349
REMARK  148  A    between atoms: _352  and  _354
REMARK  149  A    between atoms: _354  and  _355
REMARK  150  A    between atoms: _354  and  _357
REMARK  151  A    between atoms: _357  and  _358
REMARK  152  A    between atoms: _361  and  _363
REMARK  153  A    between atoms: _363  and  _364
REMARK  154  A    between atoms: _363  and  _366
REMARK  155  A    between atoms: _366  and  _367
REMARK  156  A    between atoms: _367  and  _368
REMARK  157  A    between atoms: _373  and  _375
REMARK  158  A    between atoms: _375  and  _376
REMARK  159  A    between atoms: _375  and  _378
REMARK  160  A    between atoms: _378  and  _379
REMARK  161  A    between atoms: _381  and  _383
REMARK  162  A    between atoms: _383  and  _384
REMARK  163  A    between atoms: _383  and  _386
REMARK  164  A    between atoms: _386  and  _387
REMARK  165  A    between atoms: _392  and  _394
REMARK  166  A    between atoms: _394  and  _395
REMARK  167  A    between atoms: _394  and  _397
REMARK  168  A    between atoms: _397  and  _398
REMARK  169  A    between atoms: _400  and  _402
REMARK  170  A    between atoms: _402  and  _403
REMARK  171  A    between atoms: _402  and  _405
REMARK  172  A    between atoms: _405  and  _406
REMARK  173  A    between atoms: _412  and  _414
REMARK  174  A    between atoms: _414  and  _415
REMARK  175  A    between atoms: _414  and  _417
REMARK  176  A    between atoms: _417  and  _418
REMARK  177  A    between atoms: _421  and  _423
REMARK  178  A    between atoms: _423  and  _424
REMARK  179  A    between atoms: _423  and  _426
REMARK  180  A    between atoms: _426  and  _427
REMARK  181  A    between atoms: _430  and  _432
REMARK  182  A    between atoms: _432  and  _433
REMARK  183  A    between atoms: _436  and  _438
REMARK  184  A    between atoms: _438  and  _439
REMARK  185  A    between atoms: _438  and  _441
REMARK  186  A    between atoms: _441  and  _442
REMARK  187  A    between atoms: _445  and  _447
REMARK  188  A    between atoms: _447  and  _448
REMARK  189  A    between atoms: _447  and  _450
REMARK  190  A    between atoms: _453  and  _455
REMARK  191  A    between atoms: _455  and  _456
REMARK  192  A    between atoms: _459  and  _461
REMARK  193  A    between atoms: _461  and  _462
REMARK  194  A    between atoms: _461  and  _464
REMARK  195  A    between atoms: _464  and  _465
REMARK  196  A    between atoms: _471  and  _473
REMARK  197  A    between atoms: _473  and  _474
REMARK  198  A    between atoms: _476  and  _478
REMARK  199  A    between atoms: _478  and  _479
REMARK  200  A    between atoms: _478  and  _481
REMARK  201  A    between atoms: _481  and  _482
REMARK  202  A    between atoms: _487  and  _488
REMARK  203  A    between atoms: _490  and  _492
REMARK  204  A    between atoms: _492  and  _493
REMARK  205  A    between atoms: _492  and  _495
REMARK  206  A    between atoms: _495  and  _496
REMARK  207  A    between atoms: _500  and  _501
REMARK  208  A    between atoms: _506  and  _508
REMARK  209  A    between atoms: _508  and  _509
REMARK                            x       y       z     vdW  Elec       q    Type
REMARK                         _______ _______ _______ _____ _____    ______ ____
ROOT
ATOM      1  O   HOH     1     -30.527  -5.830  -0.149  0.00  0.00    +0.000 OA
ENDROOT
TORSDOF 0
REMARK  Name = ../refined-set-2016/4f3c/4f3c_pocket.pdb
REMARK  209 active torsions:
REMARK  status: ('A' for Active; 'I' for Inactive)
REMARK    1  A    between atoms: _1  and  _3
REMARK    2  A    between atoms: _3  and  _4
REMARK    3  A    between atoms: _6  and  _8
REMARK    4  A    between atoms: _8  and  _9
REMARK    5  A    between atoms: _12  and  _14
REMARK    6  A    between atoms: _14  and  _15
REMARK    7  A    between atoms: _14  and  _17
REMARK    8  A    between atoms: _17  and  _18
REMARK    9  A    between atoms: _18  and  _19
REMARK   10  A    between atoms: _21  and  _23
REMARK   11  A    between atoms: _23  and  _24
REMARK   12  A    between atoms: _23  and  _26
REMARK   13  A    between atoms: _26  and  _27
REMARK   14  A    between atoms: _27  and  _28
REMARK   15  A    between atoms: _31  and  _33
REMARK   16  A    between atoms: _33  and  _34
REMARK   17  A    between atoms: _33  and  _36
REMARK   18  A    between atoms: _36  and  _37
REMARK   19  A    between atoms: _37  and  _38
REMARK   20  A    between atoms: _41  and  _43
REMARK   21  A    between atoms: _43  and  _44
REMARK   22  A    between atoms: _43  and  _46
REMARK   23  A    between atoms: _46  and  _47
REMARK   24  A    between atoms: _49  and  _51
REMARK   25  A    between atoms: _51  and  _52
REMARK   26  A    between atoms: _54  and  _56
REMARK   27  A    between atoms: _56  and  _57
REMARK   28  A    between atoms: _56  and  _59
REMARK   29  A    between atoms: _59  and  _60
REMARK   30  A    between atoms: _63  and  _65
REMARK   31  A    between atoms: _65  and  _66
REMARK   32  A    between atoms: _68  and  _70
REMARK   33  A    between atoms: _70  and  _71
REMARK   34  A    between atoms: _74  and  _76
REMARK   35  A    between atoms: _76  and  _77
REMARK   36  A    between atoms: _80  and  _82
REMARK   37  A    between atoms: _82  and  _83
REMARK   38  A    between atoms: _82  and  _85
REMARK   39  A    between atoms: _85  and  _86
REMARK   40  A    between atoms: _91  and  _93
REMARK   41  A    between atoms: _93  and  _94
REMARK   42  A    between atoms: _93  and  _96
REMARK   43  A    between atoms: _96  and  _97
REMARK   44  A    between atoms: _100  and  _102
REMARK   45  A    between atoms: _102  and  _103
REMARK   46  A    between atoms: _105  and  _107
REMARK   47  A    between atoms: _107  and  _108
REMARK   48  A    between atoms: _107  and  _110
REMARK   49  A    between atoms: _110  and  _111
REMARK   50  A    between atoms: _113  and  _115
REMARK   51  A    between atoms: _115  and  _116
REMARK   52  A    between atoms: _119  and  _121
REMARK   53  A    between atoms: _121  and  _122
REMARK   54  A    between atoms: _124  and  _126
REMARK   55  A    between atoms: _126  and  _127
REMARK   56  A    between atoms: _129  and  _131
REMARK   57  A    between atoms: _131  and  _132
REMARK   58  A    between atoms: _131  and  _134
REMARK   59  A    between atoms: _134  and  _135
REMARK   60  A    between atoms: _138  and  _140
REMARK   61  A    between atoms: _140  and  _141
REMARK   62  A    between atoms: _140  and  _143
REMARK   63  A    between atoms: _143  and  _144
REMARK   64  A    between atoms: _149  and  _151
REMARK   65  A    between atoms: _151  and  _152
REMARK   66  A    between atoms: _151  and  _154
REMARK   67  A    between atoms: _157  and  _159
REMARK   68  A    between atoms: _159  and  _160
REMARK   69  A    between atoms: _159  and  _162
REMARK   70  A    between atoms: _162  and  _163
REMARK   71  A    between atoms: _165  and  _167
REMARK   72  A    between atoms: _167  and  _168
REMARK   73  A    between atoms: _170  and  _172
REMARK   74  A    between atoms: _172  and  _173
REMARK   75  A    between atoms: _172  and  _175
REMARK   76  A    between atoms: _175  and  _176
REMARK   77  A    between atoms: _179  and  _181
REMARK   78  A    between atoms: _181  and  _182
REMARK   79  A    between atoms: _185  and  _187
REMARK   80  A    between atoms: _187  and  _188
REMARK   81  A    between atoms: _187  and  _190
REMARK   82  A    between atoms: _190  and  _191
REMARK   83  A    between atoms: _197  and  _199
REMARK   84  A    between atoms: _199  and  _200
REMARK   85  A    between atoms: _199  and  _202
REMARK   86  A    between atoms: _202  and  _203
REMARK   87  A    between atoms: _206  and  _208
REMARK   88  A    between atoms: _208  and  _209
REMARK   89  A    between atoms: _208  and  _211
REMARK   90  A    between atoms: _211  and  _212
REMARK   91  A    between atoms: _217  and  _219
REMARK   92  A    between atoms: _219  and  _220
REMARK   93  A    between atoms: _222  and  _224
REMARK   94  A    between atoms: _224  and  _225
REMARK   95  A    between atoms: _224  and  _227
REMARK   96  A    between atoms: _227  and  _228
REMARK   97  A    between atoms: _231  and  _233
REMARK   98  A    between atoms: _233  and  _234
REMARK   99  A    between atoms: _233  and  _236
REMARK  100  A    between atoms: _236  and  _237
REMARK  101  A    between atoms: _240  and  _242
REMARK  102  A    between atoms: _242  and  _243
REMARK  103  A    between atoms: _246  and  _248
REMARK  104  A    between atoms: _248  and  _249
REMARK  105  A    between atoms: _248  and  _251
REMARK  106  A    between atoms: _254  and  _256
REMARK  107  A    between atoms: _256  and  _257
REMARK  108  A    between atoms: _256  and  _259
REMARK  109  A    between atoms: _259  and  _260
REMARK  110  A    between atoms: _260  and  _261
REMARK  111  A    between atoms: _264  and  _266
REMARK  112  A    between atoms: _266  and  _267
REMARK  113  A    between atoms: _266  and  _269
REMARK  114  A    between atoms: _269  and  _270
REMARK  115  A    between atoms: _270  and  _271
REMARK  116  A    between atoms: _273  and  _275
REMARK  117  A    between atoms: _275  and  _276
REMARK  118  A    between atoms: _275  and  _278
REMARK  119  A    between atoms: _278  and  _279
REMARK  120  A    between atoms: _279  and  _280
REMARK  121  A    between atoms: _283  and  _285
REMARK  122  A    between atoms: _285  and  _286
REMARK  123  A    between atoms: _289  and  _291
REMARK  124  A    between atoms: _291  and  _292
REMARK  125  A    between atoms: _291  and  _294
REMARK  126  A    between atoms: _294  and  _295
REMARK  127  A    between atoms: _295  and  _296
REMARK  128  A    between atoms: _296  and  _297
REMARK  129  A    between atoms: _306  and  _308
REMARK  130  A    between atoms: _308  and  _309
REMARK  131  A    between atoms: _312  and  _314
REMARK  132  A    between atoms: _314  and  _315
REMARK  133  A    between atoms: _314  and  _317
REMARK  134  A    between atoms: _317  and  _318
REMARK  135  A    between atoms: _321  and  _323
REMARK  136  A    between atoms: _323  and  _324
REMARK  137  A    between atoms: _323  and  _326
REMARK  138  A    between atoms: _326  and  _327
REMARK  139  A    between atoms: _329  and  _331
REMARK  140  A    between atoms: _331  and  _332
REMARK  141  A    between atoms: _331  and  _334
REMARK  142  A    between atoms: _334  and  _335
REMARK  143  A    between atoms: _338  and  _340
REMARK  144  A    between atoms: _340  and  _341
REMARK  145  A    between atoms: _340  and  _343
REMARK  146  A    between atoms: _346  and  _348
REMARK  147  A    between atoms: _348  and  _349
REMARK  148  A    between atoms: _352  and  _354
REMARK  149  A    between atoms: _354  and  _355
REMARK  150  A    between atoms: _354  and  _357
REMARK  151  A    between atoms: _357  and  _358
REMARK  152  A    between atoms: _361  and  _363
REMARK  153  A    between atoms: _363  and  _364
REMARK  154  A    between atoms: _363  and  _366
REMARK  155  A    between atoms: _366  and  _367
REMARK  156  A    between atoms: _367  and  _368
REMARK  157  A    between atoms: _373  and  _375
REMARK  158  A    between atoms: _375  and  _376
REMARK  159  A    between atoms: _375  and  _378
REMARK  160  A    between atoms: _378  and  _379
REMARK  161  A    between atoms: _381  and  _383
REMARK  162  A    between atoms: _383  and  _384
REMARK  163  A    between atoms: _383  and  _386
REMARK  164  A    between atoms: _386  and  _387
REMARK  165  A    between atoms: _392  and  _394
REMARK  166  A    between atoms: _394  and  _395
REMARK  167  A    between atoms: _394  and  _397
REMARK  168  A    between atoms: _397  and  _398
REMARK  169  A    between atoms: _400  and  _402
REMARK  170  A    between atoms: _402  and  _403
REMARK  171  A    between atoms: _402  and  _405
REMARK  172  A    between atoms: _405  and  _406
REMARK  173  A    between atoms: _412  and  _414
REMARK  174  A    between atoms: _414  and  _415
REMARK  175  A    between atoms: _414  and  _417
REMARK  176  A    between atoms: _417  and  _418
REMARK  177  A    between atoms: _421  and  _423
REMARK  178  A    between atoms: _423  and  _424
REMARK  179  A    between atoms: _423  and  _426
REMARK  180  A    between atoms: _426  and  _427
REMARK  181  A    between atoms: _430  and  _432
REMARK  182  A    between atoms: _432  and  _433
REMARK  183  A    between atoms: _436  and  _438
REMARK  184  A    between atoms: _438  and  _439
REMARK  185  A    between atoms: _438  and  _441
REMARK  186  A    between atoms: _441  and  _442
REMARK  187  A    between atoms: _445  and  _447
REMARK  188  A    between atoms: _447  and  _448
REMARK  189  A    between atoms: _447  and  _450
REMARK  190  A    between atoms: _453  and  _455
REMARK  191  A    between atoms: _455  and  _456
REMARK  192  A    between atoms: _459  and  _461
REMARK  193  A    between atoms: _461  and  _462
REMARK  194  A    between atoms: _461  and  _464
REMARK  195  A    between atoms: _464  and  _465
REMARK  196  A    between atoms: _471  and  _473
REMARK  197  A    between atoms: _473  and  _474
REMARK  198  A    between atoms: _476  and  _478
REMARK  199  A    between atoms: _478  and  _479
REMARK  200  A    between atoms: _478  and  _481
REMARK  201  A    between atoms: _481  and  _482
REMARK  202  A    between atoms: _487  and  _488
REMARK  203  A    between atoms: _490  and  _492
REMARK  204  A    between atoms: _492  and  _493
REMARK  205  A    between atoms: _492  and  _495
REMARK  206  A    between atoms: _495  and  _496
REMARK  207  A    between atoms: _500  and  _501
REMARK  208  A    between atoms: _506  and  _508
REMARK  209  A    between atoms: _508  and  _509
REMARK                            x       y       z     vdW  Elec       q    Type
REMARK                         _______ _______ _______ _____ _____    ______ ____
ROOT
ATOM      1  O   HOH     1     -31.223   6.905   2.407  0.00  0.00    +0.000 OA
ENDROOT
TORSDOF 0
REMARK  Name = ../refined-set-2016/4f3c/4f3c_pocket.pdb
REMARK  209 active torsions:
REMARK  status: ('A' for Active; 'I' for Inactive)
REMARK    1  A    between atoms: _1  and  _3
REMARK    2  A    between atoms: _3  and  _4
REMARK    3  A    between atoms: _6  and  _8
REMARK    4  A    between atoms: _8  and  _9
REMARK    5  A    between atoms: _12  and  _14
REMARK    6  A    between atoms: _14  and  _15
REMARK    7  A    between atoms: _14  and  _17
REMARK    8  A    between atoms: _17  and  _18
REMARK    9  A    between atoms: _18  and  _19
REMARK   10  A    between atoms: _21  and  _23
REMARK   11  A    between atoms: _23  and  _24
REMARK   12  A    between atoms: _23  and  _26
REMARK   13  A    between atoms: _26  and  _27
REMARK   14  A    between atoms: _27  and  _28
REMARK   15  A    between atoms: _31  and  _33
REMARK   16  A    between atoms: _33  and  _34
REMARK   17  A    between atoms: _33  and  _36
REMARK   18  A    between atoms: _36  and  _37
REMARK   19  A    between atoms: _37  and  _38
REMARK   20  A    between atoms: _41  and  _43
REMARK   21  A    between atoms: _43  and  _44
REMARK   22  A    between atoms: _43  and  _46
REMARK   23  A    between atoms: _46  and  _47
REMARK   24  A    between atoms: _49  and  _51
REMARK   25  A    between atoms: _51  and  _52
REMARK   26  A    between atoms: _54  and  _56
REMARK   27  A    between atoms: _56  and  _57
REMARK   28  A    between atoms: _56  and  _59
REMARK   29  A    between atoms: _59  and  _60
REMARK   30  A    between atoms: _63  and  _65
REMARK   31  A    between atoms: _65  and  _66
REMARK   32  A    between atoms: _68  and  _70
REMARK   33  A    between atoms: _70  and  _71
REMARK   34  A    between atoms: _74  and  _76
REMARK   35  A    between atoms: _76  and  _77
REMARK   36  A    between atoms: _80  and  _82
REMARK   37  A    between atoms: _82  and  _83
REMARK   38  A    between atoms: _82  and  _85
REMARK   39  A    between atoms: _85  and  _86
REMARK   40  A    between atoms: _91  and  _93
REMARK   41  A    between atoms: _93  and  _94
REMARK   42  A    between atoms: _93  and  _96
REMARK   43  A    between atoms: _96  and  _97
REMARK   44  A    between atoms: _100  and  _102
REMARK   45  A    between atoms: _102  and  _103
REMARK   46  A    between atoms: _105  and  _107
REMARK   47  A    between atoms: _107  and  _108
REMARK   48  A    between atoms: _107  and  _110
REMARK   49  A    between atoms: _110  and  _111
REMARK   50  A    between atoms: _113  and  _115
REMARK   51  A    between atoms: _115  and  _116
REMARK   52  A    between atoms: _119  and  _121
REMARK   53  A    between atoms: _121  and  _122
REMARK   54  A    between atoms: _124  and  _126
REMARK   55  A    between atoms: _126  and  _127
REMARK   56  A    between atoms: _129  and  _131
REMARK   57  A    between atoms: _131  and  _132
REMARK   58  A    between atoms: _131  and  _134
REMARK   59  A    between atoms: _134  and  _135
REMARK   60  A    between atoms: _138  and  _140
REMARK   61  A    between atoms: _140  and  _141
REMARK   62  A    between atoms: _140  and  _143
REMARK   63  A    between atoms: _143  and  _144
REMARK   64  A    between atoms: _149  and  _151
REMARK   65  A    between atoms: _151  and  _152
REMARK   66  A    between atoms: _151  and  _154
REMARK   67  A    between atoms: _157  and  _159
REMARK   68  A    between atoms: _159  and  _160
REMARK   69  A    between atoms: _159  and  _162
REMARK   70  A    between atoms: _162  and  _163
REMARK   71  A    between atoms: _165  and  _167
REMARK   72  A    between atoms: _167  and  _168
REMARK   73  A    between atoms: _170  and  _172
REMARK   74  A    between atoms: _172  and  _173
REMARK   75  A    between atoms: _172  and  _175
REMARK   76  A    between atoms: _175  and  _176
REMARK   77  A    between atoms: _179  and  _181
REMARK   78  A    between atoms: _181  and  _182
REMARK   79  A    between atoms: _185  and  _187
REMARK   80  A    between atoms: _187  and  _188
REMARK   81  A    between atoms: _187  and  _190
REMARK   82  A    between atoms: _190  and  _191
REMARK   83  A    between atoms: _197  and  _199
REMARK   84  A    between atoms: _199  and  _200
REMARK   85  A    between atoms: _199  and  _202
REMARK   86  A    between atoms: _202  and  _203
REMARK   87  A    between atoms: _206  and  _208
REMARK   88  A    between atoms: _208  and  _209
REMARK   89  A    between atoms: _208  and  _211
REMARK   90  A    between atoms: _211  and  _212
REMARK   91  A    between atoms: _217  and  _219
REMARK   92  A    between atoms: _219  and  _220
REMARK   93  A    between atoms: _222  and  _224
REMARK   94  A    between atoms: _224  and  _225
REMARK   95  A    between atoms: _224  and  _227
REMARK   96  A    between atoms: _227  and  _228
REMARK   97  A    between atoms: _231  and  _233
REMARK   98  A    between atoms: _233  and  _234
REMARK   99  A    between atoms: _233  and  _236
REMARK  100  A    between atoms: _236  and  _237
REMARK  101  A    between atoms: _240  and  _242
REMARK  102  A    between atoms: _242  and  _243
REMARK  103  A    between atoms: _246  and  _248
REMARK  104  A    between atoms: _248  and  _249
REMARK  105  A    between atoms: _248  and  _251
REMARK  106  A    between atoms: _254  and  _256
REMARK  107  A    between atoms: _256  and  _257
REMARK  108  A    between atoms: _256  and  _259
REMARK  109  A    between atoms: _259  and  _260
REMARK  110  A    between atoms: _260  and  _261
REMARK  111  A    between atoms: _264  and  _266
REMARK  112  A    between atoms: _266  and  _267
REMARK  113  A    between atoms: _266  and  _269
REMARK  114  A    between atoms: _269  and  _270
REMARK  115  A    between atoms: _270  and  _271
REMARK  116  A    between atoms: _273  and  _275
REMARK  117  A    between atoms: _275  and  _276
REMARK  118  A    between atoms: _275  and  _278
REMARK  119  A    between atoms: _278  and  _279
REMARK  120  A    between atoms: _279  and  _280
REMARK  121  A    between atoms: _283  and  _285
REMARK  122  A    between atoms: _285  and  _286
REMARK  123  A    between atoms: _289  and  _291
REMARK  124  A    between atoms: _291  and  _292
REMARK  125  A    between atoms: _291  and  _294
REMARK  126  A    between atoms: _294  and  _295
REMARK  127  A    between atoms: _295  and  _296
REMARK  128  A    between atoms: _296  and  _297
REMARK  129  A    between atoms: _306  and  _308
REMARK  130  A    between atoms: _308  and  _309
REMARK  131  A    between atoms: _312  and  _314
REMARK  132  A    between atoms: _314  and  _315
REMARK  133  A    between atoms: _314  and  _317
REMARK  134  A    between atoms: _317  and  _318
REMARK  135  A    between atoms: _321  and  _323
REMARK  136  A    between atoms: _323  and  _324
REMARK  137  A    between atoms: _323  and  _326
REMARK  138  A    between atoms: _326  and  _327
REMARK  139  A    between atoms: _329  and  _331
REMARK  140  A    between atoms: _331  and  _332
REMARK  141  A    between atoms: _331  and  _334
REMARK  142  A    between atoms: _334  and  _335
REMARK  143  A    between atoms: _338  and  _340
REMARK  144  A    between atoms: _340  and  _341
REMARK  145  A    between atoms: _340  and  _343
REMARK  146  A    between atoms: _346  and  _348
REMARK  147  A    between atoms: _348  and  _349
REMARK  148  A    between atoms: _352  and  _354
REMARK  149  A    between atoms: _354  and  _355
REMARK  150  A    between atoms: _354  and  _357
REMARK  151  A    between atoms: _357  and  _358
REMARK  152  A    between atoms: _361  and  _363
REMARK  153  A    between atoms: _363  and  _364
REMARK  154  A    between atoms: _363  and  _366
REMARK  155  A    between atoms: _366  and  _367
REMARK  156  A    between atoms: _367  and  _368
REMARK  157  A    between atoms: _373  and  _375
REMARK  158  A    between atoms: _375  and  _376
REMARK  159  A    between atoms: _375  and  _378
REMARK  160  A    between atoms: _378  and  _379
REMARK  161  A    between atoms: _381  and  _383
REMARK  162  A    between atoms: _383  and  _384
REMARK  163  A    between atoms: _383  and  _386
REMARK  164  A    between atoms: _386  and  _387
REMARK  165  A    between atoms: _392  and  _394
REMARK  166  A    between atoms: _394  and  _395
REMARK  167  A    between atoms: _394  and  _397
REMARK  168  A    between atoms: _397  and  _398
REMARK  169  A    between atoms: _400  and  _402
REMARK  170  A    between atoms: _402  and  _403
REMARK  171  A    between atoms: _402  and  _405
REMARK  172  A    between atoms: _405  and  _406
REMARK  173  A    between atoms: _412  and  _414
REMARK  174  A    between atoms: _414  and  _415
REMARK  175  A    between atoms: _414  and  _417
REMARK  176  A    between atoms: _417  and  _418
REMARK  177  A    between atoms: _421  and  _423
REMARK  178  A    between atoms: _423  and  _424
REMARK  179  A    between atoms: _423  and  _426
REMARK  180  A    between atoms: _426  and  _427
REMARK  181  A    between atoms: _430  and  _432
REMARK  182  A    between atoms: _432  and  _433
REMARK  183  A    between atoms: _436  and  _438
REMARK  184  A    between atoms: _438  and  _439
REMARK  185  A    between atoms: _438  and  _441
REMARK  186  A    between atoms: _441  and  _442
REMARK  187  A    between atoms: _445  and  _447
REMARK  188  A    between atoms: _447  and  _448
REMARK  189  A    between atoms: _447  and  _450
REMARK  190  A    between atoms: _453  and  _455
REMARK  191  A    between atoms: _455  and  _456
REMARK  192  A    between atoms: _459  and  _461
REMARK  193  A    between atoms: _461  and  _462
REMARK  194  A    between atoms: _461  and  _464
REMARK  195  A    between atoms: _464  and  _465
REMARK  196  A    between atoms: _471  and  _473
REMARK  197  A    between atoms: _473  and  _474
REMARK  198  A    between atoms: _476  and  _478
REMARK  199  A    between atoms: _478  and  _479
REMARK  200  A    between atoms: _478  and  _481
REMARK  201  A    between atoms: _481  and  _482
REMARK  202  A    between atoms: _487  and  _488
REMARK  203  A    between atoms: _490  and  _492
REMARK  204  A    between atoms: _492  and  _493
REMARK  205  A    between atoms: _492  and  _495
REMARK  206  A    between atoms: _495  and  _496
REMARK  207  A    between atoms: _500  and  _501
REMARK  208  A    between atoms: _506  and  _508
REMARK  209  A    between atoms: _508  and  _509
REMARK                            x       y       z     vdW  Elec       q    Type
REMARK                         _______ _______ _______ _____ _____    ______ ____
ROOT
ATOM      1  O   HOH     1     -32.815   4.753  -1.049  0.00  0.00    +0.000 OA
ENDROOT
TORSDOF 0
