REMARK  Name = ../refined-set-2016/1ydd/1ydd_pocket.pdb
REMARK  147 active torsions:
REMARK  status: ('A' for Active; 'I' for Inactive)
REMARK    1  A    between atoms: _1  and  _3
REMARK    2  A    between atoms: _3  and  _4
REMARK    3  A    between atoms: _3  and  _6
REMARK    4  A    between atoms: _6  and  _7
REMARK    5  A    between atoms: _17  and  _19
REMARK    6  A    between atoms: _19  and  _20
REMARK    7  A    between atoms: _19  and  _22
REMARK    8  A    between atoms: _22  and  _23
REMARK    9  A    between atoms: _28  and  _29
REMARK   10  A    between atoms: _31  and  _33
REMARK   11  A    between atoms: _33  and  _34
REMARK   12  A    between atoms: _33  and  _36
REMARK   13  A    between atoms: _36  and  _37
REMARK   14  A    between atoms: _40  and  _41
REMARK   15  A    between atoms: _46  and  _48
REMARK   16  A    between atoms: _48  and  _49
REMARK   17  A    between atoms: _48  and  _51
REMARK   18  A    between atoms: _51  and  _52
REMARK   19  A    between atoms: _57  and  _59
REMARK   20  A    between atoms: _59  and  _60
REMARK   21  A    between atoms: _59  and  _62
REMARK   22  A    between atoms: _62  and  _63
REMARK   23  A    between atoms: _68  and  _70
REMARK   24  A    between atoms: _70  and  _71
REMARK   25  A    between atoms: _74  and  _76
REMARK   26  A    between atoms: _76  and  _77
REMARK   27  A    between atoms: _76  and  _79
REMARK   28  A    between atoms: _79  and  _80
REMARK   29  A    between atoms: _85  and  _87
REMARK   30  A    between atoms: _87  and  _88
REMARK   31  A    between atoms: _87  and  _90
REMARK   32  A    between atoms: _90  and  _91
REMARK   33  A    between atoms: _94  and  _96
REMARK   34  A    between atoms: _96  and  _97
REMARK   35  A    between atoms: _96  and  _99
REMARK   36  A    between atoms: _99  and  _100
REMARK   37  A    between atoms: _100  and  _101
REMARK   38  A    between atoms: _106  and  _108
REMARK   39  A    between atoms: _108  and  _109
REMARK   40  A    between atoms: _108  and  _111
REMARK   41  A    between atoms: _111  and  _112
REMARK   42  A    between atoms: _118  and  _120
REMARK   43  A    between atoms: _131  and  _134
REMARK   44  A    between atoms: _134  and  _135
REMARK   45  A    between atoms: _143  and  _144
REMARK   46  A    between atoms: _152  and  _154
REMARK   47  A    between atoms: _154  and  _155
REMARK   48  A    between atoms: _154  and  _157
REMARK   49  A    between atoms: _157  and  _158
REMARK   50  A    between atoms: _158  and  _159
REMARK   51  A    between atoms: _162  and  _164
REMARK   52  A    between atoms: _164  and  _165
REMARK   53  A    between atoms: _164  and  _167
REMARK   54  A    between atoms: _167  and  _168
REMARK   55  A    between atoms: _173  and  _175
REMARK   56  A    between atoms: _175  and  _176
REMARK   57  A    between atoms: _175  and  _178
REMARK   58  A    between atoms: _179  and  _180
REMARK   59  A    between atoms: _183  and  _185
REMARK   60  A    between atoms: _185  and  _186
REMARK   61  A    between atoms: _185  and  _188
REMARK   62  A    between atoms: _188  and  _189
REMARK   63  A    between atoms: _192  and  _194
REMARK   64  A    between atoms: _194  and  _195
REMARK   65  A    between atoms: _194  and  _197
REMARK   66  A    between atoms: _197  and  _198
REMARK   67  A    between atoms: _199  and  ZN_426
REMARK   68  A    between atoms: _203  and  _205
REMARK   69  A    between atoms: _205  and  _206
REMARK   70  A    between atoms: _205  and  _208
REMARK   71  A    between atoms: _208  and  _209
REMARK   72  A    between atoms: _212  and  _214
REMARK   73  A    between atoms: _214  and  _215
REMARK   74  A    between atoms: _214  and  _217
REMARK   75  A    between atoms: _220  and  _222
REMARK   76  A    between atoms: _222  and  _223
REMARK   77  A    between atoms: _222  and  _225
REMARK   78  A    between atoms: _225  and  _226
REMARK   79  A    between atoms: _231  and  _233
REMARK   80  A    between atoms: _233  and  _234
REMARK   81  A    between atoms: _233  and  _236
REMARK   82  A    between atoms: _236  and  _237
REMARK   83  A    between atoms: _247  and  _249
REMARK   84  A    between atoms: _249  and  _250
REMARK   85  A    between atoms: _249  and  _252
REMARK   86  A    between atoms: _252  and  _253
REMARK   87  A    between atoms: _259  and  _261
REMARK   88  A    between atoms: _261  and  _262
REMARK   89  A    between atoms: _261  and  _264
REMARK   90  A    between atoms: _267  and  _269
REMARK   91  A    between atoms: _269  and  _270
REMARK   92  A    between atoms: _269  and  _272
REMARK   93  A    between atoms: _272  and  _273
REMARK   94  A    between atoms: _276  and  _278
REMARK   95  A    between atoms: _278  and  _279
REMARK   96  A    between atoms: _282  and  _284
REMARK   97  A    between atoms: _284  and  _285
REMARK   98  A    between atoms: _284  and  _287
REMARK   99  A    between atoms: _290  and  _292
REMARK  100  A    between atoms: _292  and  _293
REMARK  101  A    between atoms: _292  and  _295
REMARK  102  A    between atoms: _295  and  _296
REMARK  103  A    between atoms: _299  and  _301
REMARK  104  A    between atoms: _301  and  _302
REMARK  105  A    between atoms: _301  and  _304
REMARK  106  A    between atoms: _304  and  _305
REMARK  107  A    between atoms: _307  and  _309
REMARK  108  A    between atoms: _309  and  _310
REMARK  109  A    between atoms: _309  and  _312
REMARK  110  A    between atoms: _312  and  _313
REMARK  111  A    between atoms: _313  and  _314
REMARK  112  A    between atoms: _314  and  _315
REMARK  113  A    between atoms: _324  and  _326
REMARK  114  A    between atoms: _326  and  _327
REMARK  115  A    between atoms: _326  and  _329
REMARK  116  A    between atoms: _329  and  _330
REMARK  117  A    between atoms: _333  and  _335
REMARK  118  A    between atoms: _335  and  _336
REMARK  119  A    between atoms: _335  and  _338
REMARK  120  A    between atoms: _338  and  _339
REMARK  121  A    between atoms: _343  and  _344
REMARK  122  A    between atoms: _350  and  _351
REMARK  123  A    between atoms: _356  and  _358
REMARK  124  A    between atoms: _358  and  _359
REMARK  125  A    between atoms: _358  and  _361
REMARK  126  A    between atoms: _361  and  _362
REMARK  127  A    between atoms: _365  and  _367
REMARK  128  A    between atoms: _367  and  _368
REMARK  129  A    between atoms: _367  and  _370
REMARK  130  A    between atoms: _370  and  _371
REMARK  131  A    between atoms: _374  and  _376
REMARK  132  A    between atoms: _376  and  _377
REMARK  133  A    between atoms: _376  and  _379
REMARK  134  A    between atoms: _382  and  _384
REMARK  135  A    between atoms: _384  and  _385
REMARK  136  A    between atoms: _384  and  _387
REMARK  137  A    between atoms: _387  and  _388
REMARK  138  A    between atoms: _398  and  _400
REMARK  139  A    between atoms: _400  and  _401
REMARK  140  A    between atoms: _400  and  _403
REMARK  141  A    between atoms: _403  and  _404
REMARK  142  A    between atoms: _409  and  _411
REMARK  143  A    between atoms: _411  and  _412
REMARK  144  A    between atoms: _411  and  _414
REMARK  145  A    between atoms: _414  and  _415
REMARK  146  A    between atoms: _415  and  _416
REMARK  147  A    between atoms: _416  and  _417
REMARK                            x       y       z     vdW  Elec       q    Type
REMARK                         _______ _______ _______ _____ _____    ______ ____
ROOT
ATOM      1  CG  TRP A   1       5.759   0.125  12.151  0.00  0.00    -0.002 A 
ATOM      2  CD2 TRP A   1       4.326  -0.250  12.080  0.00  0.00    +0.013 A 
ATOM      3  CE3 TRP A   1       3.649  -1.418  12.221  0.00  0.00    +0.001 A 
ATOM      4  CZ3 TRP A   1       2.276  -1.418  12.080  0.00  0.00    +0.000 A 
ATOM      5  CH2 TRP A   1       1.581  -0.250  11.797  0.00  0.00    +0.001 A 
ATOM      6  CZ2 TRP A   1       2.277   0.959  11.585  0.00  0.00    +0.017 A 
ATOM      7  CE2 TRP A   1       3.649   0.959  11.727  0.00  0.00    +0.056 A 
ATOM      8  NE1 TRP A   1       4.564   1.960  11.656  0.00  0.00    -0.352 N 
ATOM      9  HE1 TRP A   1       4.348   2.960  11.467  0.00  0.00    +0.166 HD
ATOM     10  CD1 TRP A   1       5.790   1.459  11.868  0.00  0.00    +0.068 A 
ENDROOT
BRANCH   1  11
ATOM     11  CB  TRP A   1       6.881  -0.792  12.433  0.00  0.00    +0.053 C 
BRANCH  11  12
ATOM     12  CA  TRP A   1       7.645  -1.501  11.303  0.00  0.00    +0.137 C 
BRANCH  12  13
ATOM     13  N   TRP A   1       8.446  -0.542  10.526  0.00  0.00    -0.239 NA
ATOM     14  H   TRP A   1       8.328   0.470  10.733  0.00  0.00    +0.142 HD
ENDBRANCH  12  13
BRANCH  12  15
ATOM     15  C   TRP A   1       6.671  -2.294  10.455  0.00  0.00    +0.224 C 
ATOM     16  O   TRP A   1       6.221  -1.835   9.395  0.00  0.00    -0.287 OA
ENDBRANCH  12  15
ENDBRANCH  11  12
ENDBRANCH   1  11
TORSDOF 4
REMARK  Name = ../refined-set-2016/1ydd/1ydd_pocket.pdb
REMARK  147 active torsions:
REMARK  status: ('A' for Active; 'I' for Inactive)
REMARK    1  A    between atoms: _1  and  _3
REMARK    2  A    between atoms: _3  and  _4
REMARK    3  A    between atoms: _3  and  _6
REMARK    4  A    between atoms: _6  and  _7
REMARK    5  A    between atoms: _17  and  _19
REMARK    6  A    between atoms: _19  and  _20
REMARK    7  A    between atoms: _19  and  _22
REMARK    8  A    between atoms: _22  and  _23
REMARK    9  A    between atoms: _28  and  _29
REMARK   10  A    between atoms: _31  and  _33
REMARK   11  A    between atoms: _33  and  _34
REMARK   12  A    between atoms: _33  and  _36
REMARK   13  A    between atoms: _36  and  _37
REMARK   14  A    between atoms: _40  and  _41
REMARK   15  A    between atoms: _46  and  _48
REMARK   16  A    between atoms: _48  and  _49
REMARK   17  A    between atoms: _48  and  _51
REMARK   18  A    between atoms: _51  and  _52
REMARK   19  A    between atoms: _57  and  _59
REMARK   20  A    between atoms: _59  and  _60
REMARK   21  A    between atoms: _59  and  _62
REMARK   22  A    between atoms: _62  and  _63
REMARK   23  A    between atoms: _68  and  _70
REMARK   24  A    between atoms: _70  and  _71
REMARK   25  A    between atoms: _74  and  _76
REMARK   26  A    between atoms: _76  and  _77
REMARK   27  A    between atoms: _76  and  _79
REMARK   28  A    between atoms: _79  and  _80
REMARK   29  A    between atoms: _85  and  _87
REMARK   30  A    between atoms: _87  and  _88
REMARK   31  A    between atoms: _87  and  _90
REMARK   32  A    between atoms: _90  and  _91
REMARK   33  A    between atoms: _94  and  _96
REMARK   34  A    between atoms: _96  and  _97
REMARK   35  A    between atoms: _96  and  _99
REMARK   36  A    between atoms: _99  and  _100
REMARK   37  A    between atoms: _100  and  _101
REMARK   38  A    between atoms: _106  and  _108
REMARK   39  A    between atoms: _108  and  _109
REMARK   40  A    between atoms: _108  and  _111
REMARK   41  A    between atoms: _111  and  _112
REMARK   42  A    between atoms: _118  and  _120
REMARK   43  A    between atoms: _131  and  _134
REMARK   44  A    between atoms: _134  and  _135
REMARK   45  A    between atoms: _143  and  _144
REMARK   46  A    between atoms: _152  and  _154
REMARK   47  A    between atoms: _154  and  _155
REMARK   48  A    between atoms: _154  and  _157
REMARK   49  A    between atoms: _157  and  _158
REMARK   50  A    between atoms: _158  and  _159
REMARK   51  A    between atoms: _162  and  _164
REMARK   52  A    between atoms: _164  and  _165
REMARK   53  A    between atoms: _164  and  _167
REMARK   54  A    between atoms: _167  and  _168
REMARK   55  A    between atoms: _173  and  _175
REMARK   56  A    between atoms: _175  and  _176
REMARK   57  A    between atoms: _175  and  _178
REMARK   58  A    between atoms: _179  and  _180
REMARK   59  A    between atoms: _183  and  _185
REMARK   60  A    between atoms: _185  and  _186
REMARK   61  A    between atoms: _185  and  _188
REMARK   62  A    between atoms: _188  and  _189
REMARK   63  A    between atoms: _192  and  _194
REMARK   64  A    between atoms: _194  and  _195
REMARK   65  A    between atoms: _194  and  _197
REMARK   66  A    between atoms: _197  and  _198
REMARK   67  A    between atoms: _199  and  ZN_426
REMARK   68  A    between atoms: _203  and  _205
REMARK   69  A    between atoms: _205  and  _206
REMARK   70  A    between atoms: _205  and  _208
REMARK   71  A    between atoms: _208  and  _209
REMARK   72  A    between atoms: _212  and  _214
REMARK   73  A    between atoms: _214  and  _215
REMARK   74  A    between atoms: _214  and  _217
REMARK   75  A    between atoms: _220  and  _222
REMARK   76  A    between atoms: _222  and  _223
REMARK   77  A    between atoms: _222  and  _225
REMARK   78  A    between atoms: _225  and  _226
REMARK   79  A    between atoms: _231  and  _233
REMARK   80  A    between atoms: _233  and  _234
REMARK   81  A    between atoms: _233  and  _236
REMARK   82  A    between atoms: _236  and  _237
REMARK   83  A    between atoms: _247  and  _249
REMARK   84  A    between atoms: _249  and  _250
REMARK   85  A    between atoms: _249  and  _252
REMARK   86  A    between atoms: _252  and  _253
REMARK   87  A    between atoms: _259  and  _261
REMARK   88  A    between atoms: _261  and  _262
REMARK   89  A    between atoms: _261  and  _264
REMARK   90  A    between atoms: _267  and  _269
REMARK   91  A    between atoms: _269  and  _270
REMARK   92  A    between atoms: _269  and  _272
REMARK   93  A    between atoms: _272  and  _273
REMARK   94  A    between atoms: _276  and  _278
REMARK   95  A    between atoms: _278  and  _279
REMARK   96  A    between atoms: _282  and  _284
REMARK   97  A    between atoms: _284  and  _285
REMARK   98  A    between atoms: _284  and  _287
REMARK   99  A    between atoms: _290  and  _292
REMARK  100  A    between atoms: _292  and  _293
REMARK  101  A    between atoms: _292  and  _295
REMARK  102  A    between atoms: _295  and  _296
REMARK  103  A    between atoms: _299  and  _301
REMARK  104  A    between atoms: _301  and  _302
REMARK  105  A    between atoms: _301  and  _304
REMARK  106  A    between atoms: _304  and  _305
REMARK  107  A    between atoms: _307  and  _309
REMARK  108  A    between atoms: _309  and  _310
REMARK  109  A    between atoms: _309  and  _312
REMARK  110  A    between atoms: _312  and  _313
REMARK  111  A    between atoms: _313  and  _314
REMARK  112  A    between atoms: _314  and  _315
REMARK  113  A    between atoms: _324  and  _326
REMARK  114  A    between atoms: _326  and  _327
REMARK  115  A    between atoms: _326  and  _329
REMARK  116  A    between atoms: _329  and  _330
REMARK  117  A    between atoms: _333  and  _335
REMARK  118  A    between atoms: _335  and  _336
REMARK  119  A    between atoms: _335  and  _338
REMARK  120  A    between atoms: _338  and  _339
REMARK  121  A    between atoms: _343  and  _344
REMARK  122  A    between atoms: _350  and  _351
REMARK  123  A    between atoms: _356  and  _358
REMARK  124  A    between atoms: _358  and  _359
REMARK  125  A    between atoms: _358  and  _361
REMARK  126  A    between atoms: _361  and  _362
REMARK  127  A    between atoms: _365  and  _367
REMARK  128  A    between atoms: _367  and  _368
REMARK  129  A    between atoms: _367  and  _370
REMARK  130  A    between atoms: _370  and  _371
REMARK  131  A    between atoms: _374  and  _376
REMARK  132  A    between atoms: _376  and  _377
REMARK  133  A    between atoms: _376  and  _379
REMARK  134  A    between atoms: _382  and  _384
REMARK  135  A    between atoms: _384  and  _385
REMARK  136  A    between atoms: _384  and  _387
REMARK  137  A    between atoms: _387  and  _388
REMARK  138  A    between atoms: _398  and  _400
REMARK  139  A    between atoms: _400  and  _401
REMARK  140  A    between atoms: _400  and  _403
REMARK  141  A    between atoms: _403  and  _404
REMARK  142  A    between atoms: _409  and  _411
REMARK  143  A    between atoms: _411  and  _412
REMARK  144  A    between atoms: _411  and  _414
REMARK  145  A    between atoms: _414  and  _415
REMARK  146  A    between atoms: _415  and  _416
REMARK  147  A    between atoms: _416  and  _417
REMARK                            x       y       z     vdW  Elec       q    Type
REMARK                         _______ _______ _______ _____ _____    ______ ____
ROOT
ATOM      1  CG  TYR A   1       2.026  -6.964  12.221  0.00  0.00    -0.020 A 
ATOM      2  CD2 TYR A   1       1.548  -6.881  13.563  0.00  0.00    -0.001 A 
ATOM      3  CE2 TYR A   1       0.712  -5.880  13.987  0.00  0.00    +0.036 A 
ATOM      4  CZ  TYR A   1       0.335  -4.879  13.140  0.00  0.00    +0.134 A 
ATOM      5  CE1 TYR A   1       0.770  -4.921  11.797  0.00  0.00    +0.036 A 
ATOM      6  CD1 TYR A   1       1.606  -5.921  11.373  0.00  0.00    -0.001 A 
ENDROOT
BRANCH   4   7
ATOM      7  OH  TYR A   1      -0.501  -3.878  13.563  0.00  0.00    -0.506 OA
ATOM      8  HH  TYR A   1      -0.662  -3.247  12.817  0.00  0.00    +0.292 HD
ENDBRANCH   4   7
BRANCH   1   9
ATOM      9  CB  TYR A   1       2.905  -8.048  11.797  0.00  0.00    +0.051 C 
BRANCH   9  10
ATOM     10  CA  TYR A   1       4.400  -7.756  11.797  0.00  0.00    +0.137 C 
BRANCH  10  11
ATOM     11  N   TYR A   1       4.791  -6.672  10.950  0.00  0.00    -0.239 NA
ATOM     12  H   TYR A   1       4.828  -6.850   9.926  0.00  0.00    +0.142 HD
ENDBRANCH  10  11
BRANCH  10  13
ATOM     13  C   TYR A   1       5.242  -9.007  11.515  0.00  0.00    +0.224 C 
ATOM     14  O   TYR A   1       4.851 -10.133  11.868  0.00  0.00    -0.287 OA
ENDBRANCH  10  13
ENDBRANCH   9  10
ENDBRANCH   1   9
TORSDOF 5
REMARK  Name = ../refined-set-2016/1ydd/1ydd_pocket.pdb
REMARK  147 active torsions:
REMARK  status: ('A' for Active; 'I' for Inactive)
REMARK    1  A    between atoms: _1  and  _3
REMARK    2  A    between atoms: _3  and  _4
REMARK    3  A    between atoms: _3  and  _6
REMARK    4  A    between atoms: _6  and  _7
REMARK    5  A    between atoms: _17  and  _19
REMARK    6  A    between atoms: _19  and  _20
REMARK    7  A    between atoms: _19  and  _22
REMARK    8  A    between atoms: _22  and  _23
REMARK    9  A    between atoms: _28  and  _29
REMARK   10  A    between atoms: _31  and  _33
REMARK   11  A    between atoms: _33  and  _34
REMARK   12  A    between atoms: _33  and  _36
REMARK   13  A    between atoms: _36  and  _37
REMARK   14  A    between atoms: _40  and  _41
REMARK   15  A    between atoms: _46  and  _48
REMARK   16  A    between atoms: _48  and  _49
REMARK   17  A    between atoms: _48  and  _51
REMARK   18  A    between atoms: _51  and  _52
REMARK   19  A    between atoms: _57  and  _59
REMARK   20  A    between atoms: _59  and  _60
REMARK   21  A    between atoms: _59  and  _62
REMARK   22  A    between atoms: _62  and  _63
REMARK   23  A    between atoms: _68  and  _70
REMARK   24  A    between atoms: _70  and  _71
REMARK   25  A    between atoms: _74  and  _76
REMARK   26  A    between atoms: _76  and  _77
REMARK   27  A    between atoms: _76  and  _79
REMARK   28  A    between atoms: _79  and  _80
REMARK   29  A    between atoms: _85  and  _87
REMARK   30  A    between atoms: _87  and  _88
REMARK   31  A    between atoms: _87  and  _90
REMARK   32  A    between atoms: _90  and  _91
REMARK   33  A    between atoms: _94  and  _96
REMARK   34  A    between atoms: _96  and  _97
REMARK   35  A    between atoms: _96  and  _99
REMARK   36  A    between atoms: _99  and  _100
REMARK   37  A    between atoms: _100  and  _101
REMARK   38  A    between atoms: _106  and  _108
REMARK   39  A    between atoms: _108  and  _109
REMARK   40  A    between atoms: _108  and  _111
REMARK   41  A    between atoms: _111  and  _112
REMARK   42  A    between atoms: _118  and  _120
REMARK   43  A    between atoms: _131  and  _134
REMARK   44  A    between atoms: _134  and  _135
REMARK   45  A    between atoms: _143  and  _144
REMARK   46  A    between atoms: _152  and  _154
REMARK   47  A    between atoms: _154  and  _155
REMARK   48  A    between atoms: _154  and  _157
REMARK   49  A    between atoms: _157  and  _158
REMARK   50  A    between atoms: _158  and  _159
REMARK   51  A    between atoms: _162  and  _164
REMARK   52  A    between atoms: _164  and  _165
REMARK   53  A    between atoms: _164  and  _167
REMARK   54  A    between atoms: _167  and  _168
REMARK   55  A    between atoms: _173  and  _175
REMARK   56  A    between atoms: _175  and  _176
REMARK   57  A    between atoms: _175  and  _178
REMARK   58  A    between atoms: _179  and  _180
REMARK   59  A    between atoms: _183  and  _185
REMARK   60  A    between atoms: _185  and  _186
REMARK   61  A    between atoms: _185  and  _188
REMARK   62  A    between atoms: _188  and  _189
REMARK   63  A    between atoms: _192  and  _194
REMARK   64  A    between atoms: _194  and  _195
REMARK   65  A    between atoms: _194  and  _197
REMARK   66  A    between atoms: _197  and  _198
REMARK   67  A    between atoms: _199  and  ZN_426
REMARK   68  A    between atoms: _203  and  _205
REMARK   69  A    between atoms: _205  and  _206
REMARK   70  A    between atoms: _205  and  _208
REMARK   71  A    between atoms: _208  and  _209
REMARK   72  A    between atoms: _212  and  _214
REMARK   73  A    between atoms: _214  and  _215
REMARK   74  A    between atoms: _214  and  _217
REMARK   75  A    between atoms: _220  and  _222
REMARK   76  A    between atoms: _222  and  _223
REMARK   77  A    between atoms: _222  and  _225
REMARK   78  A    between atoms: _225  and  _226
REMARK   79  A    between atoms: _231  and  _233
REMARK   80  A    between atoms: _233  and  _234
REMARK   81  A    between atoms: _233  and  _236
REMARK   82  A    between atoms: _236  and  _237
REMARK   83  A    between atoms: _247  and  _249
REMARK   84  A    between atoms: _249  and  _250
REMARK   85  A    between atoms: _249  and  _252
REMARK   86  A    between atoms: _252  and  _253
REMARK   87  A    between atoms: _259  and  _261
REMARK   88  A    between atoms: _261  and  _262
REMARK   89  A    between atoms: _261  and  _264
REMARK   90  A    between atoms: _267  and  _269
REMARK   91  A    between atoms: _269  and  _270
REMARK   92  A    between atoms: _269  and  _272
REMARK   93  A    between atoms: _272  and  _273
REMARK   94  A    between atoms: _276  and  _278
REMARK   95  A    between atoms: _278  and  _279
REMARK   96  A    between atoms: _282  and  _284
REMARK   97  A    between atoms: _284  and  _285
REMARK   98  A    between atoms: _284  and  _287
REMARK   99  A    between atoms: _290  and  _292
REMARK  100  A    between atoms: _292  and  _293
REMARK  101  A    between atoms: _292  and  _295
REMARK  102  A    between atoms: _295  and  _296
REMARK  103  A    between atoms: _299  and  _301
REMARK  104  A    between atoms: _301  and  _302
REMARK  105  A    between atoms: _301  and  _304
REMARK  106  A    between atoms: _304  and  _305
REMARK  107  A    between atoms: _307  and  _309
REMARK  108  A    between atoms: _309  and  _310
REMARK  109  A    between atoms: _309  and  _312
REMARK  110  A    between atoms: _312  and  _313
REMARK  111  A    between atoms: _313  and  _314
REMARK  112  A    between atoms: _314  and  _315
REMARK  113  A    between atoms: _324  and  _326
REMARK  114  A    between atoms: _326  and  _327
REMARK  115  A    between atoms: _326  and  _329
REMARK  116  A    between atoms: _329  and  _330
REMARK  117  A    between atoms: _333  and  _335
REMARK  118  A    between atoms: _335  and  _336
REMARK  119  A    between atoms: _335  and  _338
REMARK  120  A    between atoms: _338  and  _339
REMARK  121  A    between atoms: _343  and  _344
REMARK  122  A    between atoms: _350  and  _351
REMARK  123  A    between atoms: _356  and  _358
REMARK  124  A    between atoms: _358  and  _359
REMARK  125  A    between atoms: _358  and  _361
REMARK  126  A    between atoms: _361  and  _362
REMARK  127  A    between atoms: _365  and  _367
REMARK  128  A    between atoms: _367  and  _368
REMARK  129  A    between atoms: _367  and  _370
REMARK  130  A    between atoms: _370  and  _371
REMARK  131  A    between atoms: _374  and  _376
REMARK  132  A    between atoms: _376  and  _377
REMARK  133  A    between atoms: _376  and  _379
REMARK  134  A    between atoms: _382  and  _384
REMARK  135  A    between atoms: _384  and  _385
REMARK  136  A    between atoms: _384  and  _387
REMARK  137  A    between atoms: _387  and  _388
REMARK  138  A    between atoms: _398  and  _400
REMARK  139  A    between atoms: _400  and  _401
REMARK  140  A    between atoms: _400  and  _403
REMARK  141  A    between atoms: _403  and  _404
REMARK  142  A    between atoms: _409  and  _411
REMARK  143  A    between atoms: _411  and  _412
REMARK  144  A    between atoms: _411  and  _414
REMARK  145  A    between atoms: _414  and  _415
REMARK  146  A    between atoms: _415  and  _416
REMARK  147  A    between atoms: _416  and  _417
REMARK                            x       y       z     vdW  Elec       q    Type
REMARK                         _______ _______ _______ _____ _____    ______ ____
ROOT
ATOM      1  C   SER A   1      -2.352  -3.128  23.453  0.00  0.00    +0.244 C 
ATOM      2  N   PRO A   2      -3.022  -4.212  23.241  0.00  0.00    -0.273 N 
ATOM      3  CA  PRO A   2      -4.152  -4.796  23.807  0.00  0.00    +0.140 C 
ATOM      4  CB  PRO A   2      -4.766  -5.880  22.888  0.00  0.00    +0.030 C 
ATOM      5  CG  PRO A   2      -3.442  -6.505  22.394  0.00  0.00    +0.024 C 
ATOM      6  CD  PRO A   2      -2.746  -5.129  22.182  0.00  0.00    +0.094 C 
ATOM      7  O   SER A   1      -1.430  -2.585  23.030  0.00  0.00    -0.273 OA
ENDROOT
BRANCH   3   8
ATOM      8  C   PRO A   2      -3.690  -5.504  25.149  0.00  0.00    +0.227 C 
ATOM      9  O   PRO A   2      -2.464  -5.546  25.361  0.00  0.00    -0.286 OA
ENDBRANCH   3   8
BRANCH   1  10
ATOM     10  CA  SER A   1      -2.689  -2.210  24.584  0.00  0.00    +0.175 C 
BRANCH  10  11
ATOM     11  N   SER A   1      -1.665  -1.334  25.078  0.00  0.00    -0.236 NA
ATOM     12  H   SER A   1      -1.158  -0.750  24.382  0.00  0.00    +0.142 HD
ENDBRANCH  10  11
BRANCH  10  13
ATOM     13  CB  SER A   1      -4.024  -1.460  24.301  0.00  0.00    +0.163 C 
BRANCH  13  14
ATOM     14  OG  SER A   1      -4.190  -0.292  24.937  0.00  0.00    -0.380 OA
ATOM     15  H   SER A   1      -5.065   0.097  24.687  0.00  0.00    +0.211 HD
ENDBRANCH  13  14
ENDBRANCH  10  13
ENDBRANCH   1  10
TORSDOF 5
REMARK  Name = ../refined-set-2016/1ydd/1ydd_pocket.pdb
REMARK  147 active torsions:
REMARK  status: ('A' for Active; 'I' for Inactive)
REMARK    1  A    between atoms: _1  and  _3
REMARK    2  A    between atoms: _3  and  _4
REMARK    3  A    between atoms: _3  and  _6
REMARK    4  A    between atoms: _6  and  _7
REMARK    5  A    between atoms: _17  and  _19
REMARK    6  A    between atoms: _19  and  _20
REMARK    7  A    between atoms: _19  and  _22
REMARK    8  A    between atoms: _22  and  _23
REMARK    9  A    between atoms: _28  and  _29
REMARK   10  A    between atoms: _31  and  _33
REMARK   11  A    between atoms: _33  and  _34
REMARK   12  A    between atoms: _33  and  _36
REMARK   13  A    between atoms: _36  and  _37
REMARK   14  A    between atoms: _40  and  _41
REMARK   15  A    between atoms: _46  and  _48
REMARK   16  A    between atoms: _48  and  _49
REMARK   17  A    between atoms: _48  and  _51
REMARK   18  A    between atoms: _51  and  _52
REMARK   19  A    between atoms: _57  and  _59
REMARK   20  A    between atoms: _59  and  _60
REMARK   21  A    between atoms: _59  and  _62
REMARK   22  A    between atoms: _62  and  _63
REMARK   23  A    between atoms: _68  and  _70
REMARK   24  A    between atoms: _70  and  _71
REMARK   25  A    between atoms: _74  and  _76
REMARK   26  A    between atoms: _76  and  _77
REMARK   27  A    between atoms: _76  and  _79
REMARK   28  A    between atoms: _79  and  _80
REMARK   29  A    between atoms: _85  and  _87
REMARK   30  A    between atoms: _87  and  _88
REMARK   31  A    between atoms: _87  and  _90
REMARK   32  A    between atoms: _90  and  _91
REMARK   33  A    between atoms: _94  and  _96
REMARK   34  A    between atoms: _96  and  _97
REMARK   35  A    between atoms: _96  and  _99
REMARK   36  A    between atoms: _99  and  _100
REMARK   37  A    between atoms: _100  and  _101
REMARK   38  A    between atoms: _106  and  _108
REMARK   39  A    between atoms: _108  and  _109
REMARK   40  A    between atoms: _108  and  _111
REMARK   41  A    between atoms: _111  and  _112
REMARK   42  A    between atoms: _118  and  _120
REMARK   43  A    between atoms: _131  and  _134
REMARK   44  A    between atoms: _134  and  _135
REMARK   45  A    between atoms: _143  and  _144
REMARK   46  A    between atoms: _152  and  _154
REMARK   47  A    between atoms: _154  and  _155
REMARK   48  A    between atoms: _154  and  _157
REMARK   49  A    between atoms: _157  and  _158
REMARK   50  A    between atoms: _158  and  _159
REMARK   51  A    between atoms: _162  and  _164
REMARK   52  A    between atoms: _164  and  _165
REMARK   53  A    between atoms: _164  and  _167
REMARK   54  A    between atoms: _167  and  _168
REMARK   55  A    between atoms: _173  and  _175
REMARK   56  A    between atoms: _175  and  _176
REMARK   57  A    between atoms: _175  and  _178
REMARK   58  A    between atoms: _179  and  _180
REMARK   59  A    between atoms: _183  and  _185
REMARK   60  A    between atoms: _185  and  _186
REMARK   61  A    between atoms: _185  and  _188
REMARK   62  A    between atoms: _188  and  _189
REMARK   63  A    between atoms: _192  and  _194
REMARK   64  A    between atoms: _194  and  _195
REMARK   65  A    between atoms: _194  and  _197
REMARK   66  A    between atoms: _197  and  _198
REMARK   67  A    between atoms: _199  and  ZN_426
REMARK   68  A    between atoms: _203  and  _205
REMARK   69  A    between atoms: _205  and  _206
REMARK   70  A    between atoms: _205  and  _208
REMARK   71  A    between atoms: _208  and  _209
REMARK   72  A    between atoms: _212  and  _214
REMARK   73  A    between atoms: _214  and  _215
REMARK   74  A    between atoms: _214  and  _217
REMARK   75  A    between atoms: _220  and  _222
REMARK   76  A    between atoms: _222  and  _223
REMARK   77  A    between atoms: _222  and  _225
REMARK   78  A    between atoms: _225  and  _226
REMARK   79  A    between atoms: _231  and  _233
REMARK   80  A    between atoms: _233  and  _234
REMARK   81  A    between atoms: _233  and  _236
REMARK   82  A    between atoms: _236  and  _237
REMARK   83  A    between atoms: _247  and  _249
REMARK   84  A    between atoms: _249  and  _250
REMARK   85  A    between atoms: _249  and  _252
REMARK   86  A    between atoms: _252  and  _253
REMARK   87  A    between atoms: _259  and  _261
REMARK   88  A    between atoms: _261  and  _262
REMARK   89  A    between atoms: _261  and  _264
REMARK   90  A    between atoms: _267  and  _269
REMARK   91  A    between atoms: _269  and  _270
REMARK   92  A    between atoms: _269  and  _272
REMARK   93  A    between atoms: _272  and  _273
REMARK   94  A    between atoms: _276  and  _278
REMARK   95  A    between atoms: _278  and  _279
REMARK   96  A    between atoms: _282  and  _284
REMARK   97  A    between atoms: _284  and  _285
REMARK   98  A    between atoms: _284  and  _287
REMARK   99  A    between atoms: _290  and  _292
REMARK  100  A    between atoms: _292  and  _293
REMARK  101  A    between atoms: _292  and  _295
REMARK  102  A    between atoms: _295  and  _296
REMARK  103  A    between atoms: _299  and  _301
REMARK  104  A    between atoms: _301  and  _302
REMARK  105  A    between atoms: _301  and  _304
REMARK  106  A    between atoms: _304  and  _305
REMARK  107  A    between atoms: _307  and  _309
REMARK  108  A    between atoms: _309  and  _310
REMARK  109  A    between atoms: _309  and  _312
REMARK  110  A    between atoms: _312  and  _313
REMARK  111  A    between atoms: _313  and  _314
REMARK  112  A    between atoms: _314  and  _315
REMARK  113  A    between atoms: _324  and  _326
REMARK  114  A    between atoms: _326  and  _327
REMARK  115  A    between atoms: _326  and  _329
REMARK  116  A    between atoms: _329  and  _330
REMARK  117  A    between atoms: _333  and  _335
REMARK  118  A    between atoms: _335  and  _336
REMARK  119  A    between atoms: _335  and  _338
REMARK  120  A    between atoms: _338  and  _339
REMARK  121  A    between atoms: _343  and  _344
REMARK  122  A    between atoms: _350  and  _351
REMARK  123  A    between atoms: _356  and  _358
REMARK  124  A    between atoms: _358  and  _359
REMARK  125  A    between atoms: _358  and  _361
REMARK  126  A    between atoms: _361  and  _362
REMARK  127  A    between atoms: _365  and  _367
REMARK  128  A    between atoms: _367  and  _368
REMARK  129  A    between atoms: _367  and  _370
REMARK  130  A    between atoms: _370  and  _371
REMARK  131  A    between atoms: _374  and  _376
REMARK  132  A    between atoms: _376  and  _377
REMARK  133  A    between atoms: _376  and  _379
REMARK  134  A    between atoms: _382  and  _384
REMARK  135  A    between atoms: _384  and  _385
REMARK  136  A    between atoms: _384  and  _387
REMARK  137  A    between atoms: _387  and  _388
REMARK  138  A    between atoms: _398  and  _400
REMARK  139  A    between atoms: _400  and  _401
REMARK  140  A    between atoms: _400  and  _403
REMARK  141  A    between atoms: _403  and  _404
REMARK  142  A    between atoms: _409  and  _411
REMARK  143  A    between atoms: _411  and  _412
REMARK  144  A    between atoms: _411  and  _414
REMARK  145  A    between atoms: _414  and  _415
REMARK  146  A    between atoms: _415  and  _416
REMARK  147  A    between atoms: _416  and  _417
REMARK                            x       y       z     vdW  Elec       q    Type
REMARK                         _______ _______ _______ _____ _____    ______ ____
ROOT
ATOM      1  CB  ASN A   1      -2.466   2.002   5.369  0.00  0.00    +0.110 C 
ENDROOT
BRANCH   1   2
ATOM      2  CG  ASN A   1      -2.821   1.126   6.570  0.00  0.00    +0.221 C 
ATOM      3  ND2 ASN A   1      -3.287   1.751   7.700  0.00  0.00    -0.329 N 
ATOM      4 HD21 ASN A   1      -3.529   1.190   8.542  0.00  0.00    +0.145 HD
ATOM      5 HD22 ASN A   1      -3.398   2.785   7.714  0.00  0.00    +0.145 HD
ATOM      6  OD1 ASN A   1      -2.693  -0.125   6.570  0.00  0.00    -0.275 OA
ENDBRANCH   1   2
BRANCH   1   7
ATOM      7  CA  ASN A   1      -2.110   1.209   4.168  0.00  0.00    +0.142 C 
BRANCH   7   8
ATOM      8  N   ASN A   1      -3.220   0.375   3.673  0.00  0.00    -0.239 NA
ATOM      9  H   ASN A   1      -3.785  -0.185   4.343  0.00  0.00    +0.142 HD
ENDBRANCH   7   8
BRANCH   7  10
ATOM     10  C   ASN A   1      -0.824   0.375   4.309  0.00  0.00    +0.225 C 
ATOM     11  O   ASN A   1       0.237   0.917   4.662  0.00  0.00    -0.287 OA
ENDBRANCH   7  10
ENDBRANCH   1   7
TORSDOF 4
REMARK  Name = ../refined-set-2016/1ydd/1ydd_pocket.pdb
REMARK  147 active torsions:
REMARK  status: ('A' for Active; 'I' for Inactive)
REMARK    1  A    between atoms: _1  and  _3
REMARK    2  A    between atoms: _3  and  _4
REMARK    3  A    between atoms: _3  and  _6
REMARK    4  A    between atoms: _6  and  _7
REMARK    5  A    between atoms: _17  and  _19
REMARK    6  A    between atoms: _19  and  _20
REMARK    7  A    between atoms: _19  and  _22
REMARK    8  A    between atoms: _22  and  _23
REMARK    9  A    between atoms: _28  and  _29
REMARK   10  A    between atoms: _31  and  _33
REMARK   11  A    between atoms: _33  and  _34
REMARK   12  A    between atoms: _33  and  _36
REMARK   13  A    between atoms: _36  and  _37
REMARK   14  A    between atoms: _40  and  _41
REMARK   15  A    between atoms: _46  and  _48
REMARK   16  A    between atoms: _48  and  _49
REMARK   17  A    between atoms: _48  and  _51
REMARK   18  A    between atoms: _51  and  _52
REMARK   19  A    between atoms: _57  and  _59
REMARK   20  A    between atoms: _59  and  _60
REMARK   21  A    between atoms: _59  and  _62
REMARK   22  A    between atoms: _62  and  _63
REMARK   23  A    between atoms: _68  and  _70
REMARK   24  A    between atoms: _70  and  _71
REMARK   25  A    between atoms: _74  and  _76
REMARK   26  A    between atoms: _76  and  _77
REMARK   27  A    between atoms: _76  and  _79
REMARK   28  A    between atoms: _79  and  _80
REMARK   29  A    between atoms: _85  and  _87
REMARK   30  A    between atoms: _87  and  _88
REMARK   31  A    between atoms: _87  and  _90
REMARK   32  A    between atoms: _90  and  _91
REMARK   33  A    between atoms: _94  and  _96
REMARK   34  A    between atoms: _96  and  _97
REMARK   35  A    between atoms: _96  and  _99
REMARK   36  A    between atoms: _99  and  _100
REMARK   37  A    between atoms: _100  and  _101
REMARK   38  A    between atoms: _106  and  _108
REMARK   39  A    between atoms: _108  and  _109
REMARK   40  A    between atoms: _108  and  _111
REMARK   41  A    between atoms: _111  and  _112
REMARK   42  A    between atoms: _118  and  _120
REMARK   43  A    between atoms: _131  and  _134
REMARK   44  A    between atoms: _134  and  _135
REMARK   45  A    between atoms: _143  and  _144
REMARK   46  A    between atoms: _152  and  _154
REMARK   47  A    between atoms: _154  and  _155
REMARK   48  A    between atoms: _154  and  _157
REMARK   49  A    between atoms: _157  and  _158
REMARK   50  A    between atoms: _158  and  _159
REMARK   51  A    between atoms: _162  and  _164
REMARK   52  A    between atoms: _164  and  _165
REMARK   53  A    between atoms: _164  and  _167
REMARK   54  A    between atoms: _167  and  _168
REMARK   55  A    between atoms: _173  and  _175
REMARK   56  A    between atoms: _175  and  _176
REMARK   57  A    between atoms: _175  and  _178
REMARK   58  A    between atoms: _179  and  _180
REMARK   59  A    between atoms: _183  and  _185
REMARK   60  A    between atoms: _185  and  _186
REMARK   61  A    between atoms: _185  and  _188
REMARK   62  A    between atoms: _188  and  _189
REMARK   63  A    between atoms: _192  and  _194
REMARK   64  A    between atoms: _194  and  _195
REMARK   65  A    between atoms: _194  and  _197
REMARK   66  A    between atoms: _197  and  _198
REMARK   67  A    between atoms: _199  and  ZN_426
REMARK   68  A    between atoms: _203  and  _205
REMARK   69  A    between atoms: _205  and  _206
REMARK   70  A    between atoms: _205  and  _208
REMARK   71  A    between atoms: _208  and  _209
REMARK   72  A    between atoms: _212  and  _214
REMARK   73  A    between atoms: _214  and  _215
REMARK   74  A    between atoms: _214  and  _217
REMARK   75  A    between atoms: _220  and  _222
REMARK   76  A    between atoms: _222  and  _223
REMARK   77  A    between atoms: _222  and  _225
REMARK   78  A    between atoms: _225  and  _226
REMARK   79  A    between atoms: _231  and  _233
REMARK   80  A    between atoms: _233  and  _234
REMARK   81  A    between atoms: _233  and  _236
REMARK   82  A    between atoms: _236  and  _237
REMARK   83  A    between atoms: _247  and  _249
REMARK   84  A    between atoms: _249  and  _250
REMARK   85  A    between atoms: _249  and  _252
REMARK   86  A    between atoms: _252  and  _253
REMARK   87  A    between atoms: _259  and  _261
REMARK   88  A    between atoms: _261  and  _262
REMARK   89  A    between atoms: _261  and  _264
REMARK   90  A    between atoms: _267  and  _269
REMARK   91  A    between atoms: _269  and  _270
REMARK   92  A    between atoms: _269  and  _272
REMARK   93  A    between atoms: _272  and  _273
REMARK   94  A    between atoms: _276  and  _278
REMARK   95  A    between atoms: _278  and  _279
REMARK   96  A    between atoms: _282  and  _284
REMARK   97  A    between atoms: _284  and  _285
REMARK   98  A    between atoms: _284  and  _287
REMARK   99  A    between atoms: _290  and  _292
REMARK  100  A    between atoms: _292  and  _293
REMARK  101  A    between atoms: _292  and  _295
REMARK  102  A    between atoms: _295  and  _296
REMARK  103  A    between atoms: _299  and  _301
REMARK  104  A    between atoms: _301  and  _302
REMARK  105  A    between atoms: _301  and  _304
REMARK  106  A    between atoms: _304  and  _305
REMARK  107  A    between atoms: _307  and  _309
REMARK  108  A    between atoms: _309  and  _310
REMARK  109  A    between atoms: _309  and  _312
REMARK  110  A    between atoms: _312  and  _313
REMARK  111  A    between atoms: _313  and  _314
REMARK  112  A    between atoms: _314  and  _315
REMARK  113  A    between atoms: _324  and  _326
REMARK  114  A    between atoms: _326  and  _327
REMARK  115  A    between atoms: _326  and  _329
REMARK  116  A    between atoms: _329  and  _330
REMARK  117  A    between atoms: _333  and  _335
REMARK  118  A    between atoms: _335  and  _336
REMARK  119  A    between atoms: _335  and  _338
REMARK  120  A    between atoms: _338  and  _339
REMARK  121  A    between atoms: _343  and  _344
REMARK  122  A    between atoms: _350  and  _351
REMARK  123  A    between atoms: _356  and  _358
REMARK  124  A    between atoms: _358  and  _359
REMARK  125  A    between atoms: _358  and  _361
REMARK  126  A    between atoms: _361  and  _362
REMARK  127  A    between atoms: _365  and  _367
REMARK  128  A    between atoms: _367  and  _368
REMARK  129  A    between atoms: _367  and  _370
REMARK  130  A    between atoms: _370  and  _371
REMARK  131  A    between atoms: _374  and  _376
REMARK  132  A    between atoms: _376  and  _377
REMARK  133  A    between atoms: _376  and  _379
REMARK  134  A    between atoms: _382  and  _384
REMARK  135  A    between atoms: _384  and  _385
REMARK  136  A    between atoms: _384  and  _387
REMARK  137  A    between atoms: _387  and  _388
REMARK  138  A    between atoms: _398  and  _400
REMARK  139  A    between atoms: _400  and  _401
REMARK  140  A    between atoms: _400  and  _403
REMARK  141  A    between atoms: _403  and  _404
REMARK  142  A    between atoms: _409  and  _411
REMARK  143  A    between atoms: _411  and  _412
REMARK  144  A    between atoms: _411  and  _414
REMARK  145  A    between atoms: _414  and  _415
REMARK  146  A    between atoms: _415  and  _416
REMARK  147  A    between atoms: _416  and  _417
REMARK                            x       y       z     vdW  Elec       q    Type
REMARK                         _______ _______ _______ _____ _____    ______ ____
ROOT
ATOM      1  CA  HIS A   1      -0.682  -2.961   7.700  0.00  0.00    +0.151 C 
ENDROOT
BRANCH   1   2
ATOM      2  C   HIS A   1      -2.043  -3.586   7.841  0.00  0.00    +0.239 C 
ATOM      3  O   HIS A   1      -2.208  -4.670   8.477  0.00  0.00    -0.274 OA
ATOM      4  N   ALA A   2      -3.024  -2.919   7.347  0.00  0.00    -0.298 N 
ATOM      5  H   ALA A   2      -2.787  -2.012   6.898  0.00  0.00    +0.150 HD
BRANCH   4   6
ATOM      6  CA  ALA A   2      -4.433  -3.294   7.347  0.00  0.00    +0.137 C 
ATOM      7  CB  ALA A   2      -5.082  -2.961   8.689  0.00  0.00    +0.030 C 
BRANCH   6   8
ATOM      8  C   ALA A   2      -5.224  -2.502   6.287  0.00  0.00    +0.227 C 
ATOM      9  O   ALA A   2      -4.552  -1.793   5.510  0.00  0.00    -0.286 OA
ENDBRANCH   6   8
ENDBRANCH   4   6
ENDBRANCH   1   2
BRANCH   1  10
ATOM     10  N   HIS A   1      -0.650  -2.294   6.428  0.00  0.00    -0.238 NA
ATOM     11  H   HIS A   1      -1.363  -1.567   6.218  0.00  0.00    +0.142 HD
ENDBRANCH   1  10
BRANCH   1  12
ATOM     12  CB  HIS A   1      -0.440  -2.002   8.901  0.00  0.00    +0.074 C 
BRANCH  12  13
ATOM     13  CG  HIS A   1       0.573  -0.959   8.618  0.00  0.00    +0.082 A 
ATOM     14  ND1 HIS A   1       1.915  -1.251   8.548  0.00  0.00    -0.227 NA
ATOM     15  CE1 HIS A   1       2.501  -0.125   8.265  0.00  0.00    +0.199 A 
ATOM     16  NE2 HIS A   1       1.641   0.876   8.124  0.00  0.00    -0.221 NA
ATOM     17  CD2 HIS A   1       0.391   0.375   8.336  0.00  0.00    +0.115 A 
ENDBRANCH  12  13
ENDBRANCH   1  12
TORSDOF 6
REMARK  Name = ../refined-set-2016/1ydd/1ydd_pocket.pdb
REMARK  147 active torsions:
REMARK  status: ('A' for Active; 'I' for Inactive)
REMARK    1  A    between atoms: _1  and  _3
REMARK    2  A    between atoms: _3  and  _4
REMARK    3  A    between atoms: _3  and  _6
REMARK    4  A    between atoms: _6  and  _7
REMARK    5  A    between atoms: _17  and  _19
REMARK    6  A    between atoms: _19  and  _20
REMARK    7  A    between atoms: _19  and  _22
REMARK    8  A    between atoms: _22  and  _23
REMARK    9  A    between atoms: _28  and  _29
REMARK   10  A    between atoms: _31  and  _33
REMARK   11  A    between atoms: _33  and  _34
REMARK   12  A    between atoms: _33  and  _36
REMARK   13  A    between atoms: _36  and  _37
REMARK   14  A    between atoms: _40  and  _41
REMARK   15  A    between atoms: _46  and  _48
REMARK   16  A    between atoms: _48  and  _49
REMARK   17  A    between atoms: _48  and  _51
REMARK   18  A    between atoms: _51  and  _52
REMARK   19  A    between atoms: _57  and  _59
REMARK   20  A    between atoms: _59  and  _60
REMARK   21  A    between atoms: _59  and  _62
REMARK   22  A    between atoms: _62  and  _63
REMARK   23  A    between atoms: _68  and  _70
REMARK   24  A    between atoms: _70  and  _71
REMARK   25  A    between atoms: _74  and  _76
REMARK   26  A    between atoms: _76  and  _77
REMARK   27  A    between atoms: _76  and  _79
REMARK   28  A    between atoms: _79  and  _80
REMARK   29  A    between atoms: _85  and  _87
REMARK   30  A    between atoms: _87  and  _88
REMARK   31  A    between atoms: _87  and  _90
REMARK   32  A    between atoms: _90  and  _91
REMARK   33  A    between atoms: _94  and  _96
REMARK   34  A    between atoms: _96  and  _97
REMARK   35  A    between atoms: _96  and  _99
REMARK   36  A    between atoms: _99  and  _100
REMARK   37  A    between atoms: _100  and  _101
REMARK   38  A    between atoms: _106  and  _108
REMARK   39  A    between atoms: _108  and  _109
REMARK   40  A    between atoms: _108  and  _111
REMARK   41  A    between atoms: _111  and  _112
REMARK   42  A    between atoms: _118  and  _120
REMARK   43  A    between atoms: _131  and  _134
REMARK   44  A    between atoms: _134  and  _135
REMARK   45  A    between atoms: _143  and  _144
REMARK   46  A    between atoms: _152  and  _154
REMARK   47  A    between atoms: _154  and  _155
REMARK   48  A    between atoms: _154  and  _157
REMARK   49  A    between atoms: _157  and  _158
REMARK   50  A    between atoms: _158  and  _159
REMARK   51  A    between atoms: _162  and  _164
REMARK   52  A    between atoms: _164  and  _165
REMARK   53  A    between atoms: _164  and  _167
REMARK   54  A    between atoms: _167  and  _168
REMARK   55  A    between atoms: _173  and  _175
REMARK   56  A    between atoms: _175  and  _176
REMARK   57  A    between atoms: _175  and  _178
REMARK   58  A    between atoms: _179  and  _180
REMARK   59  A    between atoms: _183  and  _185
REMARK   60  A    between atoms: _185  and  _186
REMARK   61  A    between atoms: _185  and  _188
REMARK   62  A    between atoms: _188  and  _189
REMARK   63  A    between atoms: _192  and  _194
REMARK   64  A    between atoms: _194  and  _195
REMARK   65  A    between atoms: _194  and  _197
REMARK   66  A    between atoms: _197  and  _198
REMARK   67  A    between atoms: _199  and  ZN_426
REMARK   68  A    between atoms: _203  and  _205
REMARK   69  A    between atoms: _205  and  _206
REMARK   70  A    between atoms: _205  and  _208
REMARK   71  A    between atoms: _208  and  _209
REMARK   72  A    between atoms: _212  and  _214
REMARK   73  A    between atoms: _214  and  _215
REMARK   74  A    between atoms: _214  and  _217
REMARK   75  A    between atoms: _220  and  _222
REMARK   76  A    between atoms: _222  and  _223
REMARK   77  A    between atoms: _222  and  _225
REMARK   78  A    between atoms: _225  and  _226
REMARK   79  A    between atoms: _231  and  _233
REMARK   80  A    between atoms: _233  and  _234
REMARK   81  A    between atoms: _233  and  _236
REMARK   82  A    between atoms: _236  and  _237
REMARK   83  A    between atoms: _247  and  _249
REMARK   84  A    between atoms: _249  and  _250
REMARK   85  A    between atoms: _249  and  _252
REMARK   86  A    between atoms: _252  and  _253
REMARK   87  A    between atoms: _259  and  _261
REMARK   88  A    between atoms: _261  and  _262
REMARK   89  A    between atoms: _261  and  _264
REMARK   90  A    between atoms: _267  and  _269
REMARK   91  A    between atoms: _269  and  _270
REMARK   92  A    between atoms: _269  and  _272
REMARK   93  A    between atoms: _272  and  _273
REMARK   94  A    between atoms: _276  and  _278
REMARK   95  A    between atoms: _278  and  _279
REMARK   96  A    between atoms: _282  and  _284
REMARK   97  A    between atoms: _284  and  _285
REMARK   98  A    between atoms: _284  and  _287
REMARK   99  A    between atoms: _290  and  _292
REMARK  100  A    between atoms: _292  and  _293
REMARK  101  A    between atoms: _292  and  _295
REMARK  102  A    between atoms: _295  and  _296
REMARK  103  A    between atoms: _299  and  _301
REMARK  104  A    between atoms: _301  and  _302
REMARK  105  A    between atoms: _301  and  _304
REMARK  106  A    between atoms: _304  and  _305
REMARK  107  A    between atoms: _307  and  _309
REMARK  108  A    between atoms: _309  and  _310
REMARK  109  A    between atoms: _309  and  _312
REMARK  110  A    between atoms: _312  and  _313
REMARK  111  A    between atoms: _313  and  _314
REMARK  112  A    between atoms: _314  and  _315
REMARK  113  A    between atoms: _324  and  _326
REMARK  114  A    between atoms: _326  and  _327
REMARK  115  A    between atoms: _326  and  _329
REMARK  116  A    between atoms: _329  and  _330
REMARK  117  A    between atoms: _333  and  _335
REMARK  118  A    between atoms: _335  and  _336
REMARK  119  A    between atoms: _335  and  _338
REMARK  120  A    between atoms: _338  and  _339
REMARK  121  A    between atoms: _343  and  _344
REMARK  122  A    between atoms: _350  and  _351
REMARK  123  A    between atoms: _356  and  _358
REMARK  124  A    between atoms: _358  and  _359
REMARK  125  A    between atoms: _358  and  _361
REMARK  126  A    between atoms: _361  and  _362
REMARK  127  A    between atoms: _365  and  _367
REMARK  128  A    between atoms: _367  and  _368
REMARK  129  A    between atoms: _367  and  _370
REMARK  130  A    between atoms: _370  and  _371
REMARK  131  A    between atoms: _374  and  _376
REMARK  132  A    between atoms: _376  and  _377
REMARK  133  A    between atoms: _376  and  _379
REMARK  134  A    between atoms: _382  and  _384
REMARK  135  A    between atoms: _384  and  _385
REMARK  136  A    between atoms: _384  and  _387
REMARK  137  A    between atoms: _387  and  _388
REMARK  138  A    between atoms: _398  and  _400
REMARK  139  A    between atoms: _400  and  _401
REMARK  140  A    between atoms: _400  and  _403
REMARK  141  A    between atoms: _403  and  _404
REMARK  142  A    between atoms: _409  and  _411
REMARK  143  A    between atoms: _411  and  _412
REMARK  144  A    between atoms: _411  and  _414
REMARK  145  A    between atoms: _414  and  _415
REMARK  146  A    between atoms: _415  and  _416
REMARK  147  A    between atoms: _416  and  _417
REMARK                            x       y       z     vdW  Elec       q    Type
REMARK                         _______ _______ _______ _____ _____    ______ ____
ROOT
ATOM      1  CB  ASN A   1      -8.355   2.460   6.994  0.00  0.00    +0.110 C 
ENDROOT
BRANCH   1   2
ATOM      2  CG  ASN A   1      -7.105   2.293   7.771  0.00  0.00    +0.221 C 
ATOM      3  ND2 ASN A   1      -6.905   1.209   8.477  0.00  0.00    -0.329 N 
ATOM      4 HD21 ASN A   1      -6.008   1.078   8.986  0.00  0.00    +0.145 HD
ATOM      5 HD22 ASN A   1      -7.643   0.478   8.529  0.00  0.00    +0.145 HD
ATOM      6  OD1 ASN A   1      -6.190   3.211   7.700  0.00  0.00    -0.275 OA
ENDBRANCH   1   2
BRANCH   1   7
ATOM      7  CA  ASN A   1      -9.202   1.251   6.640  0.00  0.00    +0.142 C 
BRANCH   7   8
ATOM      8  N   ASN A   1      -8.402   0.250   5.863  0.00  0.00    -0.239 NA
ATOM      9  H   ASN A   1      -7.951   0.541   4.972  0.00  0.00    +0.142 HD
ENDBRANCH   7   8
BRANCH   7  10
ATOM     10  C   ASN A   1     -10.372   1.751   5.722  0.00  0.00    +0.225 C 
ATOM     11  O   ASN A   1     -10.206   2.002   4.592  0.00  0.00    -0.287 OA
ENDBRANCH   7  10
ENDBRANCH   1   7
TORSDOF 4
REMARK  Name = ../refined-set-2016/1ydd/1ydd_pocket.pdb
REMARK  147 active torsions:
REMARK  status: ('A' for Active; 'I' for Inactive)
REMARK    1  A    between atoms: _1  and  _3
REMARK    2  A    between atoms: _3  and  _4
REMARK    3  A    between atoms: _3  and  _6
REMARK    4  A    between atoms: _6  and  _7
REMARK    5  A    between atoms: _17  and  _19
REMARK    6  A    between atoms: _19  and  _20
REMARK    7  A    between atoms: _19  and  _22
REMARK    8  A    between atoms: _22  and  _23
REMARK    9  A    between atoms: _28  and  _29
REMARK   10  A    between atoms: _31  and  _33
REMARK   11  A    between atoms: _33  and  _34
REMARK   12  A    between atoms: _33  and  _36
REMARK   13  A    between atoms: _36  and  _37
REMARK   14  A    between atoms: _40  and  _41
REMARK   15  A    between atoms: _46  and  _48
REMARK   16  A    between atoms: _48  and  _49
REMARK   17  A    between atoms: _48  and  _51
REMARK   18  A    between atoms: _51  and  _52
REMARK   19  A    between atoms: _57  and  _59
REMARK   20  A    between atoms: _59  and  _60
REMARK   21  A    between atoms: _59  and  _62
REMARK   22  A    between atoms: _62  and  _63
REMARK   23  A    between atoms: _68  and  _70
REMARK   24  A    between atoms: _70  and  _71
REMARK   25  A    between atoms: _74  and  _76
REMARK   26  A    between atoms: _76  and  _77
REMARK   27  A    between atoms: _76  and  _79
REMARK   28  A    between atoms: _79  and  _80
REMARK   29  A    between atoms: _85  and  _87
REMARK   30  A    between atoms: _87  and  _88
REMARK   31  A    between atoms: _87  and  _90
REMARK   32  A    between atoms: _90  and  _91
REMARK   33  A    between atoms: _94  and  _96
REMARK   34  A    between atoms: _96  and  _97
REMARK   35  A    between atoms: _96  and  _99
REMARK   36  A    between atoms: _99  and  _100
REMARK   37  A    between atoms: _100  and  _101
REMARK   38  A    between atoms: _106  and  _108
REMARK   39  A    between atoms: _108  and  _109
REMARK   40  A    between atoms: _108  and  _111
REMARK   41  A    between atoms: _111  and  _112
REMARK   42  A    between atoms: _118  and  _120
REMARK   43  A    between atoms: _131  and  _134
REMARK   44  A    between atoms: _134  and  _135
REMARK   45  A    between atoms: _143  and  _144
REMARK   46  A    between atoms: _152  and  _154
REMARK   47  A    between atoms: _154  and  _155
REMARK   48  A    between atoms: _154  and  _157
REMARK   49  A    between atoms: _157  and  _158
REMARK   50  A    between atoms: _158  and  _159
REMARK   51  A    between atoms: _162  and  _164
REMARK   52  A    between atoms: _164  and  _165
REMARK   53  A    between atoms: _164  and  _167
REMARK   54  A    between atoms: _167  and  _168
REMARK   55  A    between atoms: _173  and  _175
REMARK   56  A    between atoms: _175  and  _176
REMARK   57  A    between atoms: _175  and  _178
REMARK   58  A    between atoms: _179  and  _180
REMARK   59  A    between atoms: _183  and  _185
REMARK   60  A    between atoms: _185  and  _186
REMARK   61  A    between atoms: _185  and  _188
REMARK   62  A    between atoms: _188  and  _189
REMARK   63  A    between atoms: _192  and  _194
REMARK   64  A    between atoms: _194  and  _195
REMARK   65  A    between atoms: _194  and  _197
REMARK   66  A    between atoms: _197  and  _198
REMARK   67  A    between atoms: _199  and  ZN_426
REMARK   68  A    between atoms: _203  and  _205
REMARK   69  A    between atoms: _205  and  _206
REMARK   70  A    between atoms: _205  and  _208
REMARK   71  A    between atoms: _208  and  _209
REMARK   72  A    between atoms: _212  and  _214
REMARK   73  A    between atoms: _214  and  _215
REMARK   74  A    between atoms: _214  and  _217
REMARK   75  A    between atoms: _220  and  _222
REMARK   76  A    between atoms: _222  and  _223
REMARK   77  A    between atoms: _222  and  _225
REMARK   78  A    between atoms: _225  and  _226
REMARK   79  A    between atoms: _231  and  _233
REMARK   80  A    between atoms: _233  and  _234
REMARK   81  A    between atoms: _233  and  _236
REMARK   82  A    between atoms: _236  and  _237
REMARK   83  A    between atoms: _247  and  _249
REMARK   84  A    between atoms: _249  and  _250
REMARK   85  A    between atoms: _249  and  _252
REMARK   86  A    between atoms: _252  and  _253
REMARK   87  A    between atoms: _259  and  _261
REMARK   88  A    between atoms: _261  and  _262
REMARK   89  A    between atoms: _261  and  _264
REMARK   90  A    between atoms: _267  and  _269
REMARK   91  A    between atoms: _269  and  _270
REMARK   92  A    between atoms: _269  and  _272
REMARK   93  A    between atoms: _272  and  _273
REMARK   94  A    between atoms: _276  and  _278
REMARK   95  A    between atoms: _278  and  _279
REMARK   96  A    between atoms: _282  and  _284
REMARK   97  A    between atoms: _284  and  _285
REMARK   98  A    between atoms: _284  and  _287
REMARK   99  A    between atoms: _290  and  _292
REMARK  100  A    between atoms: _292  and  _293
REMARK  101  A    between atoms: _292  and  _295
REMARK  102  A    between atoms: _295  and  _296
REMARK  103  A    between atoms: _299  and  _301
REMARK  104  A    between atoms: _301  and  _302
REMARK  105  A    between atoms: _301  and  _304
REMARK  106  A    between atoms: _304  and  _305
REMARK  107  A    between atoms: _307  and  _309
REMARK  108  A    between atoms: _309  and  _310
REMARK  109  A    between atoms: _309  and  _312
REMARK  110  A    between atoms: _312  and  _313
REMARK  111  A    between atoms: _313  and  _314
REMARK  112  A    between atoms: _314  and  _315
REMARK  113  A    between atoms: _324  and  _326
REMARK  114  A    between atoms: _326  and  _327
REMARK  115  A    between atoms: _326  and  _329
REMARK  116  A    between atoms: _329  and  _330
REMARK  117  A    between atoms: _333  and  _335
REMARK  118  A    between atoms: _335  and  _336
REMARK  119  A    between atoms: _335  and  _338
REMARK  120  A    between atoms: _338  and  _339
REMARK  121  A    between atoms: _343  and  _344
REMARK  122  A    between atoms: _350  and  _351
REMARK  123  A    between atoms: _356  and  _358
REMARK  124  A    between atoms: _358  and  _359
REMARK  125  A    between atoms: _358  and  _361
REMARK  126  A    between atoms: _361  and  _362
REMARK  127  A    between atoms: _365  and  _367
REMARK  128  A    between atoms: _367  and  _368
REMARK  129  A    between atoms: _367  and  _370
REMARK  130  A    between atoms: _370  and  _371
REMARK  131  A    between atoms: _374  and  _376
REMARK  132  A    between atoms: _376  and  _377
REMARK  133  A    between atoms: _376  and  _379
REMARK  134  A    between atoms: _382  and  _384
REMARK  135  A    between atoms: _384  and  _385
REMARK  136  A    between atoms: _384  and  _387
REMARK  137  A    between atoms: _387  and  _388
REMARK  138  A    between atoms: _398  and  _400
REMARK  139  A    between atoms: _400  and  _401
REMARK  140  A    between atoms: _400  and  _403
REMARK  141  A    between atoms: _403  and  _404
REMARK  142  A    between atoms: _409  and  _411
REMARK  143  A    between atoms: _411  and  _412
REMARK  144  A    between atoms: _411  and  _414
REMARK  145  A    between atoms: _414  and  _415
REMARK  146  A    between atoms: _415  and  _416
REMARK  147  A    between atoms: _416  and  _417
REMARK                            x       y       z     vdW  Elec       q    Type
REMARK                         _______ _______ _______ _____ _____    ______ ____
ROOT
ATOM      1  N   UNK A   6      -8.295  -2.419  16.601  0.00  0.00    +0.000 N 
ATOM      2  C   UNK A   6      -7.961  -3.294  17.449  0.00  0.00    +0.000 A 
ATOM      3  N   UNK A   6      -9.060  -3.586  18.226  0.00  0.00    +0.000 NA
ATOM      4  C   UNK A   6     -10.127  -2.877  17.731  0.00  0.00    +0.000 A 
ATOM      5  C   UNK A   6      -9.570  -2.085  16.742  0.00  0.00    +0.000 A 
ENDROOT
BRANCH   1  19
ATOM      6  C   UNK A   4     -10.177  -1.376  10.384  0.00  0.00    +0.000 C 
ATOM      7  C   UNK A   4     -10.294  -2.669  11.162  0.00  0.00    +0.000 C 
ATOM      8  O   UNK A   4     -11.064  -2.752  12.151  0.00  0.00    +0.000 OA
ATOM      9  N   VAL A   5      -9.568  -3.670  10.667  0.00  0.00    +0.000 N 
ATOM     10  CA  VAL A   5      -9.520  -5.004  11.303  0.00  0.00    +0.000 C 
ATOM     11  C   VAL A   5      -8.081  -5.463  11.515  0.00  0.00    +0.000 C 
ATOM     12  N   UNK A   6      -7.960  -6.464  12.362  0.00  0.00    +0.000 N 
ATOM     13  H   UNK A   6      -8.835  -6.756  12.842  0.00  0.00    +0.000 HD
ATOM     14  C   UNK A   6      -6.771  -7.214  12.716  0.00  0.00    +0.000 C 
ATOM     15  C   UNK A   6      -6.303  -7.006  14.199  0.00  0.00    +0.000 C 
ATOM     16  C   UNK A   6      -5.993  -5.588  14.482  0.00  0.00    +0.000 A 
ATOM     17  C   UNK A   6      -6.853  -4.545  14.835  0.00  0.00    +0.000 A 
ATOM     18  N   UNK A   6      -6.103  -3.461  14.906  0.00  0.00    +0.000 N 
ATOM     19 ZN   UNK A   6      -6.720  -1.751  15.471  0.00  0.00    +0.000 Zn
ATOM     20  N   UNK A   4      -7.456  -0.500  13.705  0.00  0.00    +0.000 N 
ATOM     21  C   UNK A   4      -7.937   0.709  13.422  0.00  0.00    +0.000 A 
ATOM     22  N   UNK A   4      -8.435   0.792  12.221  0.00  0.00    +0.000 NA
ATOM     23  C   UNK A   4      -8.288  -0.500  11.656  0.00  0.00    +0.000 A 
ATOM     24  C   UNK A   4      -7.631  -1.293  12.574  0.00  0.00    +0.000 A 
ATOM     25  C   UNK A   6      -4.815  -3.795  14.552  0.00  0.00    +0.000 A 
ATOM     26  N   UNK A   6      -4.718  -5.046  14.340  0.00  0.00    +0.000 NA
ATOM     27  O   VAL A   5      -7.122  -4.962  10.950  0.00  0.00    +0.000 OA
ATOM     28  H   VAL A   5      -9.015  -3.507   9.802  0.00  0.00    +0.000 HD
ATOM     29  C   UNK A   4      -8.793  -0.792  10.314  0.00  0.00    +0.000 C 
BRANCH   6  31
ATOM     30  C   UNK A   3     -11.611   0.584  10.314  0.00  0.00    +0.000 C 
ATOM     31  N   UNK A   4     -11.154  -0.459  11.020  0.00  0.00    +0.000 N 
ATOM     32  H   UNK A   4     -11.478  -0.622  11.995  0.00  0.00    +0.000 HD
ATOM     33  O   UNK A   3     -11.359   0.917   9.184  0.00  0.00    +0.000 OA
BRANCH  30  34
ATOM     34  C   UNK A   3     -12.600   1.418  11.162  0.00  0.00    +0.000 C 
BRANCH  34  37
ATOM     35  C   LEU A   2     -12.576   3.920  11.232  0.00  0.00    +0.000 C 
ATOM     36  O   LEU A   2     -12.846   3.920  12.433  0.00  0.00    +0.000 OA
ATOM     37  N   UNK A   3     -12.477   2.794  10.526  0.00  0.00    +0.000 N 
ATOM     38  H   UNK A   3     -12.309   2.859   9.502  0.00  0.00    +0.000 HD
BRANCH  35  39
ATOM     39  CA  LEU A   2     -12.349   5.171  10.526  0.00  0.00    +0.000 C 
BRANCH  39  41
ATOM     40  C   GLU A   1     -12.661   7.589  10.738  0.00  0.00    +0.000 C 
ATOM     41  N   LEU A   2     -12.594   6.380  11.303  0.00  0.00    +0.000 N 
ATOM     42  H   LEU A   2     -12.721   6.299  12.332  0.00  0.00    +0.000 HD
ATOM     43  O   GLU A   1     -12.561   7.840   9.537  0.00  0.00    +0.000 OA
BRANCH  40  44
ATOM     44  CA  GLU A   1     -12.943   8.757  11.656  0.00  0.00    +0.000 C 
BRANCH  44  45
ATOM     45  N   GLU A   1     -13.859   8.340  12.716  0.00  0.00    +0.000 NA
ATOM     46  H   GLU A   1     -13.537   7.620  13.393  0.00  0.00    +0.000 HD
ENDBRANCH  44  45
BRANCH  44  47
ATOM     47  CB  GLU A   1     -11.681   9.341  12.221  0.00  0.00    +0.000 C 
ATOM     48  CG2 GLU A   1     -10.877   8.382  13.069  0.00  0.00    +0.000 C 
BRANCH  47  49
ATOM     49  CG1 GLU A   1     -10.770   9.799  11.020  0.00  0.00    +0.000 C 
ATOM     50  CD1 GLU A   1      -9.856  10.967  11.444  0.00  0.00    +0.000 C 
ENDBRANCH  47  49
ENDBRANCH  44  47
ENDBRANCH  40  44
ENDBRANCH  39  41
BRANCH  39  51
ATOM     51  CB  LEU A   2     -10.897   5.254  10.031  0.00  0.00    +0.000 C 
BRANCH  51  52
ATOM     52  CG  LEU A   2      -9.806   5.212  11.091  0.00  0.00    +0.000 C 
BRANCH  52  53
ATOM     53  CD  LEU A   2      -9.056   3.920  11.162  0.00  0.00    +0.000 C 
ATOM     54  OE1 LEU A   2      -9.575   2.877  11.515  0.00  0.00    +0.000 OA
ATOM     55  NE2 LEU A   2      -7.769   3.961  10.808  0.00  0.00    +0.000 N 
ATOM     56 HE21 LEU A   2      -7.195   3.094  10.832  0.00  0.00    +0.000 HD
ATOM     57 HE22 LEU A   2      -7.340   4.860  10.509  0.00  0.00    +0.000 HD
ENDBRANCH  52  53
ENDBRANCH  51  52
ENDBRANCH  39  51
ENDBRANCH  35  39
ENDBRANCH  34  37
BRANCH  34  58
ATOM     58  C   UNK A   3     -13.985   0.792  11.232  0.00  0.00    +0.000 C 
BRANCH  58  59
ATOM     59  C   UNK A   3     -14.697   0.250  10.031  0.00  0.00    +0.000 A 
ATOM     60  C   UNK A   3     -15.868   0.917   9.607  0.00  0.00    +0.000 A 
ATOM     61  C   UNK A   3     -16.598   0.375   8.477  0.00  0.00    +0.000 A 
ATOM     62  C   UNK A   3     -16.152  -0.792   7.912  0.00  0.00    +0.000 A 
ATOM     63  C   UNK A   3     -15.024  -1.418   8.336  0.00  0.00    +0.000 A 
ATOM     64  C   UNK A   3     -14.275  -0.917   9.395  0.00  0.00    +0.000 A 
ENDBRANCH  58  59
ENDBRANCH  34  58
ENDBRANCH  30  34
ENDBRANCH   6  31
BRANCH  14  65
ATOM     65  C   UNK A   6      -7.289  -8.674  12.574  0.00  0.00    +0.000 C 
ATOM     66  O   UNK A   6      -8.400  -8.924  13.069  0.00  0.00    +0.000 OA
ENDBRANCH  14  65
BRANCH  10  67
ATOM     67  CB  VAL A   5     -10.300  -6.047  10.526  0.00  0.00    +0.000 C 
BRANCH  67  68
ATOM     68  CG  VAL A   5     -11.745  -5.838  10.173  0.00  0.00    +0.000 A 
ATOM     69  CD2 VAL A   5     -12.740  -6.505  10.879  0.00  0.00    +0.000 A 
ATOM     70  CE2 VAL A   5     -14.057  -6.297  10.526  0.00  0.00    +0.000 A 
ATOM     71  CZ  VAL A   5     -14.422  -5.421   9.466  0.00  0.00    +0.000 A 
ATOM     72  CE1 VAL A   5     -13.426  -4.754   8.760  0.00  0.00    +0.000 A 
ATOM     73  CD1 VAL A   5     -12.067  -4.962   9.113  0.00  0.00    +0.000 A 
ENDBRANCH  67  68
ENDBRANCH  10  67
ENDBRANCH   1  19
BRANCH   5  74
ATOM     74  C   UNK A   6     -10.271  -1.126  15.824  0.00  0.00    +0.000 C 
BRANCH  74  75
ATOM     75  C   UNK A   6     -11.789  -1.376  15.753  0.00  0.00    +0.000 C 
BRANCH  75  76
ATOM     76  N   UNK A   6     -12.118  -2.585  15.047  0.00  0.00    +0.000 N 
ATOM     77  C   LEU A   2     -12.716  -3.628  15.541  0.00  0.00    +0.000 C 
ATOM     78  O   LEU A   2     -13.072  -3.711  16.742  0.00  0.00    +0.000 OA
ATOM     79  H   UNK A   6     -11.851  -2.629  14.043  0.00  0.00    +0.000 HD
BRANCH  77  80
ATOM     80  CA  LEU A   2     -12.928  -4.796  14.552  0.00  0.00    +0.000 C 
BRANCH  80  81
ATOM     81  N   LEU A   2     -12.539  -6.047  15.188  0.00  0.00    +0.000 N 
ATOM     82  H   LEU A   2     -13.237  -6.536  15.784  0.00  0.00    +0.000 HD
ATOM     83  C   GLU A   1     -11.349  -6.589  15.047  0.00  0.00    +0.000 C 
ATOM     84  O   GLU A   1     -10.439  -6.088  14.340  0.00  0.00    +0.000 OA
BRANCH  83  85
ATOM     85  CA  GLU A   1     -11.125  -7.840  15.824  0.00  0.00    +0.000 C 
BRANCH  85  86
ATOM     86  CB  GLU A   1     -10.138  -7.548  16.954  0.00  0.00    +0.000 C 
ATOM     87  CG  GLU A   1     -10.603  -6.672  18.085  0.00  0.00    +0.000 C 
BRANCH  87  88
ATOM     88  CD  GLU A   1      -9.739  -6.672  19.356  0.00  0.00    +0.000 C 
ATOM     89  OE2 GLU A   1      -9.673  -5.463  19.921  0.00  0.00    +0.000 OA
ATOM     90  OE1 GLU A   1      -9.148  -7.673  19.709  0.00  0.00    +0.000 OA
ENDBRANCH  87  88
ENDBRANCH  85  86
BRANCH  85  91
ATOM     91  N   GLU A   1     -10.690  -8.924  14.976  0.00  0.00    +0.000 NA
ATOM     92  H   GLU A   1     -10.100  -8.693  14.151  0.00  0.00    +0.000 HD
ENDBRANCH  85  91
ENDBRANCH  83  85
ENDBRANCH  80  81
BRANCH  80  93
ATOM     93  CB  LEU A   2     -14.416  -4.921  14.199  0.00  0.00    +0.000 C 
BRANCH  93  94
ATOM     94  CG  LEU A   2     -15.184  -3.670  13.705  0.00  0.00    +0.000 C 
ATOM     95  CD2 LEU A   2     -16.568  -4.045  13.281  0.00  0.00    +0.000 C 
ATOM     96  CD1 LEU A   2     -14.420  -3.002  12.574  0.00  0.00    +0.000 C 
ENDBRANCH  93  94
ENDBRANCH  80  93
ENDBRANCH  77  80
ENDBRANCH  75  76
BRANCH  75  97
ATOM     97  C   UNK A   6     -12.417  -0.167  15.047  0.00  0.00    +0.000 C 
ATOM     98  N   UNK A   4     -13.369   0.417  15.753  0.00  0.00    +0.000 N 
ATOM     99  H   UNK A   4     -13.673   0.002  16.657  0.00  0.00    +0.000 HD
ATOM    100  O   UNK A   6     -12.037   0.167  13.917  0.00  0.00    +0.000 OA
BRANCH  98 101
ATOM    101  C   UNK A   4     -14.009   1.668  15.259  0.00  0.00    +0.000 C 
BRANCH 101 102
ATOM    102  C   UNK A   4     -13.358   2.794  16.036  0.00  0.00    +0.000 C 
ATOM    103  O   UNK A   4     -13.518   2.794  17.307  0.00  0.00    +0.000 OA
ATOM    104  N   VAL A   5     -12.618   3.628  15.329  0.00  0.00    +0.000 N 
ATOM    105  H   VAL A   5     -12.579   3.518  14.296  0.00  0.00    +0.000 HD
BRANCH 104 106
ATOM    106  CA  VAL A   5     -11.845   4.712  15.965  0.00  0.00    +0.000 C 
BRANCH 106 107
ATOM    107  C   VAL A   5     -12.571   6.046  15.965  0.00  0.00    +0.000 C 
ATOM    108  N   UNK A   6     -12.584   6.672  17.166  0.00  0.00    +0.000 N 
ATOM    109  H   UNK A   6     -12.110   6.215  17.971  0.00  0.00    +0.000 HD
ATOM    110  O   VAL A   5     -13.063   6.463  14.906  0.00  0.00    +0.000 OA
BRANCH 108 111
ATOM    111  C   UNK A   6     -13.237   7.965  17.378  0.00  0.00    +0.000 C 
BRANCH 111 112
ATOM    112  C   UNK A   6     -12.287   8.924  18.155  0.00  0.00    +0.000 C 
ATOM    113  O   UNK A   6     -11.465   8.423  18.932  0.00  0.00    +0.000 OA
ATOM    114  N   TRP A   7     -12.470  10.216  17.873  0.00  0.00    +0.000 N 
ATOM    115  H   TRP A   7     -13.183  10.514  17.177  0.00  0.00    +0.000 HD
BRANCH 114 116
ATOM    116  CA  TRP A   7     -11.629  11.217  18.579  0.00  0.00    +0.000 C 
BRANCH 116 117
ATOM    117  C   TRP A   7     -12.539  12.176  19.285  0.00  0.00    +0.000 C 
ATOM    118  O   TRP A   7     -13.709  12.427  18.862  0.00  0.00    +0.000 OA
ENDBRANCH 116 117
BRANCH 116 119
ATOM    119  CB  TRP A   7     -10.731  11.926  17.590  0.00  0.00    +0.000 C 
BRANCH 119 120
ATOM    120  CG  TRP A   7     -11.339  12.510  16.318  0.00  0.00    +0.000 A 
ATOM    121  CD2 TRP A   7     -11.833  13.886  16.248  0.00  0.00    +0.000 A 
ATOM    122  CE3 TRP A   7     -11.840  14.970  17.096  0.00  0.00    +0.000 A 
ATOM    123  CZ3 TRP A   7     -12.395  16.138  16.601  0.00  0.00    +0.000 A 
ATOM    124  CH2 TRP A   7     -12.875  16.263  15.329  0.00  0.00    +0.000 A 
ATOM    125  CZ2 TRP A   7     -12.849  15.220  14.411  0.00  0.00    +0.000 A 
ATOM    126  CE2 TRP A   7     -12.337  14.011  14.906  0.00  0.00    +0.000 A 
ATOM    127  NE1 TRP A   7     -12.172  12.802  14.270  0.00  0.00    +0.000 N 
ATOM    128  HE1 TRP A   7     -12.456  12.593  13.292  0.00  0.00    +0.000 HD
ATOM    129  CD1 TRP A   7     -11.581  11.926  15.118  0.00  0.00    +0.000 A 
ENDBRANCH 119 120
ENDBRANCH 116 119
ENDBRANCH 114 116
ENDBRANCH 111 112
BRANCH 111 130
ATOM    130  C   UNK A   6     -14.483   7.798  18.226  0.00  0.00    +0.000 C 
BRANCH 130 131
ATOM    131  C   UNK A   6     -15.416   6.672  17.873  0.00  0.00    +0.000 A 
ATOM    132  N   UNK A   6     -15.068   5.338  18.014  0.00  0.00    +0.000 NA
ATOM    133  C   UNK A   6     -16.111   4.670  17.590  0.00  0.00    +0.000 A 
ATOM    134  N   UNK A   6     -17.111   5.463  17.166  0.00  0.00    +0.000 NA
ATOM    135  C   UNK A   6     -16.696   6.755  17.378  0.00  0.00    +0.000 A 
ENDBRANCH 130 131
ENDBRANCH 111 130
ENDBRANCH 108 111
ENDBRANCH 106 107
BRANCH 106 136
ATOM    136  CB  VAL A   5     -10.508   4.795  15.259  0.00  0.00    +0.000 C 
ATOM    137  CG2 VAL A   5      -9.545   5.796  15.824  0.00  0.00    +0.000 C 
ATOM    138  CG1 VAL A   5      -9.873   3.419  15.118  0.00  0.00    +0.000 C 
ENDBRANCH 106 136
ENDBRANCH 104 106
ENDBRANCH 101 102
BRANCH 101 139
ATOM    139  C   UNK A   4     -15.498   1.543  15.400  0.00  0.00    +0.000 C 
BRANCH 139 140
ATOM    140  C   UNK A   4     -16.155   0.459  14.482  0.00  0.00    +0.000 C 
ATOM    141  C   UNK A   4     -16.547  -0.709  15.329  0.00  0.00    +0.000 C 
ATOM    142  C   UNK A   4     -17.338   1.042  13.775  0.00  0.00    +0.000 C 
ENDBRANCH 139 140
ENDBRANCH 101 139
ENDBRANCH  98 101
ENDBRANCH  75  97
ENDBRANCH  74  75
ENDBRANCH   5  74
TORSDOF 45
REMARK  Name = ../refined-set-2016/1ydd/1ydd_pocket.pdb
REMARK  147 active torsions:
REMARK  status: ('A' for Active; 'I' for Inactive)
REMARK    1  A    between atoms: _1  and  _3
REMARK    2  A    between atoms: _3  and  _4
REMARK    3  A    between atoms: _3  and  _6
REMARK    4  A    between atoms: _6  and  _7
REMARK    5  A    between atoms: _17  and  _19
REMARK    6  A    between atoms: _19  and  _20
REMARK    7  A    between atoms: _19  and  _22
REMARK    8  A    between atoms: _22  and  _23
REMARK    9  A    between atoms: _28  and  _29
REMARK   10  A    between atoms: _31  and  _33
REMARK   11  A    between atoms: _33  and  _34
REMARK   12  A    between atoms: _33  and  _36
REMARK   13  A    between atoms: _36  and  _37
REMARK   14  A    between atoms: _40  and  _41
REMARK   15  A    between atoms: _46  and  _48
REMARK   16  A    between atoms: _48  and  _49
REMARK   17  A    between atoms: _48  and  _51
REMARK   18  A    between atoms: _51  and  _52
REMARK   19  A    between atoms: _57  and  _59
REMARK   20  A    between atoms: _59  and  _60
REMARK   21  A    between atoms: _59  and  _62
REMARK   22  A    between atoms: _62  and  _63
REMARK   23  A    between atoms: _68  and  _70
REMARK   24  A    between atoms: _70  and  _71
REMARK   25  A    between atoms: _74  and  _76
REMARK   26  A    between atoms: _76  and  _77
REMARK   27  A    between atoms: _76  and  _79
REMARK   28  A    between atoms: _79  and  _80
REMARK   29  A    between atoms: _85  and  _87
REMARK   30  A    between atoms: _87  and  _88
REMARK   31  A    between atoms: _87  and  _90
REMARK   32  A    between atoms: _90  and  _91
REMARK   33  A    between atoms: _94  and  _96
REMARK   34  A    between atoms: _96  and  _97
REMARK   35  A    between atoms: _96  and  _99
REMARK   36  A    between atoms: _99  and  _100
REMARK   37  A    between atoms: _100  and  _101
REMARK   38  A    between atoms: _106  and  _108
REMARK   39  A    between atoms: _108  and  _109
REMARK   40  A    between atoms: _108  and  _111
REMARK   41  A    between atoms: _111  and  _112
REMARK   42  A    between atoms: _118  and  _120
REMARK   43  A    between atoms: _131  and  _134
REMARK   44  A    between atoms: _134  and  _135
REMARK   45  A    between atoms: _143  and  _144
REMARK   46  A    between atoms: _152  and  _154
REMARK   47  A    between atoms: _154  and  _155
REMARK   48  A    between atoms: _154  and  _157
REMARK   49  A    between atoms: _157  and  _158
REMARK   50  A    between atoms: _158  and  _159
REMARK   51  A    between atoms: _162  and  _164
REMARK   52  A    between atoms: _164  and  _165
REMARK   53  A    between atoms: _164  and  _167
REMARK   54  A    between atoms: _167  and  _168
REMARK   55  A    between atoms: _173  and  _175
REMARK   56  A    between atoms: _175  and  _176
REMARK   57  A    between atoms: _175  and  _178
REMARK   58  A    between atoms: _179  and  _180
REMARK   59  A    between atoms: _183  and  _185
REMARK   60  A    between atoms: _185  and  _186
REMARK   61  A    between atoms: _185  and  _188
REMARK   62  A    between atoms: _188  and  _189
REMARK   63  A    between atoms: _192  and  _194
REMARK   64  A    between atoms: _194  and  _195
REMARK   65  A    between atoms: _194  and  _197
REMARK   66  A    between atoms: _197  and  _198
REMARK   67  A    between atoms: _199  and  ZN_426
REMARK   68  A    between atoms: _203  and  _205
REMARK   69  A    between atoms: _205  and  _206
REMARK   70  A    between atoms: _205  and  _208
REMARK   71  A    between atoms: _208  and  _209
REMARK   72  A    between atoms: _212  and  _214
REMARK   73  A    between atoms: _214  and  _215
REMARK   74  A    between atoms: _214  and  _217
REMARK   75  A    between atoms: _220  and  _222
REMARK   76  A    between atoms: _222  and  _223
REMARK   77  A    between atoms: _222  and  _225
REMARK   78  A    between atoms: _225  and  _226
REMARK   79  A    between atoms: _231  and  _233
REMARK   80  A    between atoms: _233  and  _234
REMARK   81  A    between atoms: _233  and  _236
REMARK   82  A    between atoms: _236  and  _237
REMARK   83  A    between atoms: _247  and  _249
REMARK   84  A    between atoms: _249  and  _250
REMARK   85  A    between atoms: _249  and  _252
REMARK   86  A    between atoms: _252  and  _253
REMARK   87  A    between atoms: _259  and  _261
REMARK   88  A    between atoms: _261  and  _262
REMARK   89  A    between atoms: _261  and  _264
REMARK   90  A    between atoms: _267  and  _269
REMARK   91  A    between atoms: _269  and  _270
REMARK   92  A    between atoms: _269  and  _272
REMARK   93  A    between atoms: _272  and  _273
REMARK   94  A    between atoms: _276  and  _278
REMARK   95  A    between atoms: _278  and  _279
REMARK   96  A    between atoms: _282  and  _284
REMARK   97  A    between atoms: _284  and  _285
REMARK   98  A    between atoms: _284  and  _287
REMARK   99  A    between atoms: _290  and  _292
REMARK  100  A    between atoms: _292  and  _293
REMARK  101  A    between atoms: _292  and  _295
REMARK  102  A    between atoms: _295  and  _296
REMARK  103  A    between atoms: _299  and  _301
REMARK  104  A    between atoms: _301  and  _302
REMARK  105  A    between atoms: _301  and  _304
REMARK  106  A    between atoms: _304  and  _305
REMARK  107  A    between atoms: _307  and  _309
REMARK  108  A    between atoms: _309  and  _310
REMARK  109  A    between atoms: _309  and  _312
REMARK  110  A    between atoms: _312  and  _313
REMARK  111  A    between atoms: _313  and  _314
REMARK  112  A    between atoms: _314  and  _315
REMARK  113  A    between atoms: _324  and  _326
REMARK  114  A    between atoms: _326  and  _327
REMARK  115  A    between atoms: _326  and  _329
REMARK  116  A    between atoms: _329  and  _330
REMARK  117  A    between atoms: _333  and  _335
REMARK  118  A    between atoms: _335  and  _336
REMARK  119  A    between atoms: _335  and  _338
REMARK  120  A    between atoms: _338  and  _339
REMARK  121  A    between atoms: _343  and  _344
REMARK  122  A    between atoms: _350  and  _351
REMARK  123  A    between atoms: _356  and  _358
REMARK  124  A    between atoms: _358  and  _359
REMARK  125  A    between atoms: _358  and  _361
REMARK  126  A    between atoms: _361  and  _362
REMARK  127  A    between atoms: _365  and  _367
REMARK  128  A    between atoms: _367  and  _368
REMARK  129  A    between atoms: _367  and  _370
REMARK  130  A    between atoms: _370  and  _371
REMARK  131  A    between atoms: _374  and  _376
REMARK  132  A    between atoms: _376  and  _377
REMARK  133  A    between atoms: _376  and  _379
REMARK  134  A    between atoms: _382  and  _384
REMARK  135  A    between atoms: _384  and  _385
REMARK  136  A    between atoms: _384  and  _387
REMARK  137  A    between atoms: _387  and  _388
REMARK  138  A    between atoms: _398  and  _400
REMARK  139  A    between atoms: _400  and  _401
REMARK  140  A    between atoms: _400  and  _403
REMARK  141  A    between atoms: _403  and  _404
REMARK  142  A    between atoms: _409  and  _411
REMARK  143  A    between atoms: _411  and  _412
REMARK  144  A    between atoms: _411  and  _414
REMARK  145  A    between atoms: _414  and  _415
REMARK  146  A    between atoms: _415  and  _416
REMARK  147  A    between atoms: _416  and  _417
REMARK                            x       y       z     vdW  Elec       q    Type
REMARK                         _______ _______ _______ _____ _____    ______ ____
ROOT
ATOM      1  C   GLU A   1      -5.862  -8.423  21.193  0.00  0.00    +0.238 C 
ATOM      2  O   GLU A   1      -4.978  -8.966  21.899  0.00  0.00    -0.274 OA
ATOM      3  N   HIS A   2      -7.040  -8.048  21.617  0.00  0.00    -0.298 N 
ATOM      4  H   HIS A   2      -7.683  -7.563  20.959  0.00  0.00    +0.150 HD
ENDROOT
BRANCH   1   5
ATOM      5  CA  GLU A   1      -5.604  -8.173  19.709  0.00  0.00    +0.145 C 
BRANCH   5   6
ATOM      6  N   GLU A   1      -6.682  -8.882  18.932  0.00  0.00    -0.238 NA
ATOM      7  H   GLU A   1      -7.582  -8.384  18.778  0.00  0.00    +0.142 HD
ENDBRANCH   5   6
BRANCH   5   8
ATOM      8  CB  GLU A   1      -5.597  -6.714  19.356  0.00  0.00    +0.038 C 
BRANCH   8   9
ATOM      9  CG  GLU A   1      -5.015  -6.422  17.943  0.00  0.00    +0.116 C 
BRANCH   9  10
ATOM     10  CD  GLU A   1      -4.381  -5.087  17.802  0.00  0.00    +0.365 C 
ATOM     11  OE2 GLU A   1      -4.820  -4.003  18.014  0.00  0.00    -0.246 OA
ATOM     12  OE1 GLU A   1      -3.118  -5.254  17.378  0.00  0.00    -0.246 OA
ENDBRANCH   9  10
ENDBRANCH   8   9
ENDBRANCH   5   8
ENDBRANCH   1   5
BRANCH   3  13
ATOM     13  CA  HIS A   2      -7.493  -8.298  23.030  0.00  0.00    +0.143 C 
BRANCH  13  14
ATOM     14  C   HIS A   2      -7.896  -9.758  23.100  0.00  0.00    +0.227 C 
ATOM     15  O   HIS A   2      -8.346 -10.258  22.041  0.00  0.00    -0.286 OA
ENDBRANCH  13  14
BRANCH  13  16
ATOM     16  CB  HIS A   2      -8.653  -7.381  23.383  0.00  0.00    +0.075 C 
BRANCH  16  17
ATOM     17  CG  HIS A   2      -8.305  -5.963  23.524  0.00  0.00    +0.082 A 
ATOM     18  CD2 HIS A   2      -7.770  -5.254  24.584  0.00  0.00    +0.115 A 
ATOM     19  NE2 HIS A   2      -7.617  -3.962  24.160  0.00  0.00    -0.221 NA
ATOM     20  CE1 HIS A   2      -8.054  -3.920  22.888  0.00  0.00    +0.199 A 
ATOM     21  ND1 HIS A   2      -8.456  -5.087  22.464  0.00  0.00    -0.227 NA
ENDBRANCH  16  17
ENDBRANCH  13  16
ENDBRANCH   3  13
TORSDOF 9
REMARK  Name = ../refined-set-2016/1ydd/1ydd_pocket.pdb
REMARK  147 active torsions:
REMARK  status: ('A' for Active; 'I' for Inactive)
REMARK    1  A    between atoms: _1  and  _3
REMARK    2  A    between atoms: _3  and  _4
REMARK    3  A    between atoms: _3  and  _6
REMARK    4  A    between atoms: _6  and  _7
REMARK    5  A    between atoms: _17  and  _19
REMARK    6  A    between atoms: _19  and  _20
REMARK    7  A    between atoms: _19  and  _22
REMARK    8  A    between atoms: _22  and  _23
REMARK    9  A    between atoms: _28  and  _29
REMARK   10  A    between atoms: _31  and  _33
REMARK   11  A    between atoms: _33  and  _34
REMARK   12  A    between atoms: _33  and  _36
REMARK   13  A    between atoms: _36  and  _37
REMARK   14  A    between atoms: _40  and  _41
REMARK   15  A    between atoms: _46  and  _48
REMARK   16  A    between atoms: _48  and  _49
REMARK   17  A    between atoms: _48  and  _51
REMARK   18  A    between atoms: _51  and  _52
REMARK   19  A    between atoms: _57  and  _59
REMARK   20  A    between atoms: _59  and  _60
REMARK   21  A    between atoms: _59  and  _62
REMARK   22  A    between atoms: _62  and  _63
REMARK   23  A    between atoms: _68  and  _70
REMARK   24  A    between atoms: _70  and  _71
REMARK   25  A    between atoms: _74  and  _76
REMARK   26  A    between atoms: _76  and  _77
REMARK   27  A    between atoms: _76  and  _79
REMARK   28  A    between atoms: _79  and  _80
REMARK   29  A    between atoms: _85  and  _87
REMARK   30  A    between atoms: _87  and  _88
REMARK   31  A    between atoms: _87  and  _90
REMARK   32  A    between atoms: _90  and  _91
REMARK   33  A    between atoms: _94  and  _96
REMARK   34  A    between atoms: _96  and  _97
REMARK   35  A    between atoms: _96  and  _99
REMARK   36  A    between atoms: _99  and  _100
REMARK   37  A    between atoms: _100  and  _101
REMARK   38  A    between atoms: _106  and  _108
REMARK   39  A    between atoms: _108  and  _109
REMARK   40  A    between atoms: _108  and  _111
REMARK   41  A    between atoms: _111  and  _112
REMARK   42  A    between atoms: _118  and  _120
REMARK   43  A    between atoms: _131  and  _134
REMARK   44  A    between atoms: _134  and  _135
REMARK   45  A    between atoms: _143  and  _144
REMARK   46  A    between atoms: _152  and  _154
REMARK   47  A    between atoms: _154  and  _155
REMARK   48  A    between atoms: _154  and  _157
REMARK   49  A    between atoms: _157  and  _158
REMARK   50  A    between atoms: _158  and  _159
REMARK   51  A    between atoms: _162  and  _164
REMARK   52  A    between atoms: _164  and  _165
REMARK   53  A    between atoms: _164  and  _167
REMARK   54  A    between atoms: _167  and  _168
REMARK   55  A    between atoms: _173  and  _175
REMARK   56  A    between atoms: _175  and  _176
REMARK   57  A    between atoms: _175  and  _178
REMARK   58  A    between atoms: _179  and  _180
REMARK   59  A    between atoms: _183  and  _185
REMARK   60  A    between atoms: _185  and  _186
REMARK   61  A    between atoms: _185  and  _188
REMARK   62  A    between atoms: _188  and  _189
REMARK   63  A    between atoms: _192  and  _194
REMARK   64  A    between atoms: _194  and  _195
REMARK   65  A    between atoms: _194  and  _197
REMARK   66  A    between atoms: _197  and  _198
REMARK   67  A    between atoms: _199  and  ZN_426
REMARK   68  A    between atoms: _203  and  _205
REMARK   69  A    between atoms: _205  and  _206
REMARK   70  A    between atoms: _205  and  _208
REMARK   71  A    between atoms: _208  and  _209
REMARK   72  A    between atoms: _212  and  _214
REMARK   73  A    between atoms: _214  and  _215
REMARK   74  A    between atoms: _214  and  _217
REMARK   75  A    between atoms: _220  and  _222
REMARK   76  A    between atoms: _222  and  _223
REMARK   77  A    between atoms: _222  and  _225
REMARK   78  A    between atoms: _225  and  _226
REMARK   79  A    between atoms: _231  and  _233
REMARK   80  A    between atoms: _233  and  _234
REMARK   81  A    between atoms: _233  and  _236
REMARK   82  A    between atoms: _236  and  _237
REMARK   83  A    between atoms: _247  and  _249
REMARK   84  A    between atoms: _249  and  _250
REMARK   85  A    between atoms: _249  and  _252
REMARK   86  A    between atoms: _252  and  _253
REMARK   87  A    between atoms: _259  and  _261
REMARK   88  A    between atoms: _261  and  _262
REMARK   89  A    between atoms: _261  and  _264
REMARK   90  A    between atoms: _267  and  _269
REMARK   91  A    between atoms: _269  and  _270
REMARK   92  A    between atoms: _269  and  _272
REMARK   93  A    between atoms: _272  and  _273
REMARK   94  A    between atoms: _276  and  _278
REMARK   95  A    between atoms: _278  and  _279
REMARK   96  A    between atoms: _282  and  _284
REMARK   97  A    between atoms: _284  and  _285
REMARK   98  A    between atoms: _284  and  _287
REMARK   99  A    between atoms: _290  and  _292
REMARK  100  A    between atoms: _292  and  _293
REMARK  101  A    between atoms: _292  and  _295
REMARK  102  A    between atoms: _295  and  _296
REMARK  103  A    between atoms: _299  and  _301
REMARK  104  A    between atoms: _301  and  _302
REMARK  105  A    between atoms: _301  and  _304
REMARK  106  A    between atoms: _304  and  _305
REMARK  107  A    between atoms: _307  and  _309
REMARK  108  A    between atoms: _309  and  _310
REMARK  109  A    between atoms: _309  and  _312
REMARK  110  A    between atoms: _312  and  _313
REMARK  111  A    between atoms: _313  and  _314
REMARK  112  A    between atoms: _314  and  _315
REMARK  113  A    between atoms: _324  and  _326
REMARK  114  A    between atoms: _326  and  _327
REMARK  115  A    between atoms: _326  and  _329
REMARK  116  A    between atoms: _329  and  _330
REMARK  117  A    between atoms: _333  and  _335
REMARK  118  A    between atoms: _335  and  _336
REMARK  119  A    between atoms: _335  and  _338
REMARK  120  A    between atoms: _338  and  _339
REMARK  121  A    between atoms: _343  and  _344
REMARK  122  A    between atoms: _350  and  _351
REMARK  123  A    between atoms: _356  and  _358
REMARK  124  A    between atoms: _358  and  _359
REMARK  125  A    between atoms: _358  and  _361
REMARK  126  A    between atoms: _361  and  _362
REMARK  127  A    between atoms: _365  and  _367
REMARK  128  A    between atoms: _367  and  _368
REMARK  129  A    between atoms: _367  and  _370
REMARK  130  A    between atoms: _370  and  _371
REMARK  131  A    between atoms: _374  and  _376
REMARK  132  A    between atoms: _376  and  _377
REMARK  133  A    between atoms: _376  and  _379
REMARK  134  A    between atoms: _382  and  _384
REMARK  135  A    between atoms: _384  and  _385
REMARK  136  A    between atoms: _384  and  _387
REMARK  137  A    between atoms: _387  and  _388
REMARK  138  A    between atoms: _398  and  _400
REMARK  139  A    between atoms: _400  and  _401
REMARK  140  A    between atoms: _400  and  _403
REMARK  141  A    between atoms: _403  and  _404
REMARK  142  A    between atoms: _409  and  _411
REMARK  143  A    between atoms: _411  and  _412
REMARK  144  A    between atoms: _411  and  _414
REMARK  145  A    between atoms: _414  and  _415
REMARK  146  A    between atoms: _415  and  _416
REMARK  147  A    between atoms: _416  and  _417
REMARK                            x       y       z     vdW  Elec       q    Type
REMARK                         _______ _______ _______ _____ _____    ______ ____
ROOT
ATOM      1  CB  PHE A   1      -7.712  13.135  14.199  0.00  0.00    +0.051 C 
ENDROOT
BRANCH   1   2
ATOM      2  CG  PHE A   1      -7.164  11.801  14.552  0.00  0.00    -0.020 A 
ATOM      3  CD2 PHE A   1      -7.976  10.800  15.047  0.00  0.00    -0.004 A 
ATOM      4  CE2 PHE A   1      -7.470   9.549  15.400  0.00  0.00    -0.000 A 
ATOM      5  CZ  PHE A   1      -6.091   9.341  15.188  0.00  0.00    -0.000 A 
ATOM      6  CE1 PHE A   1      -5.237  10.342  14.694  0.00  0.00    -0.000 A 
ATOM      7  CD1 PHE A   1      -5.803  11.551  14.411  0.00  0.00    -0.004 A 
ENDBRANCH   1   2
BRANCH   1   8
ATOM      8  CA  PHE A   1      -7.665  14.136  15.329  0.00  0.00    +0.137 C 
BRANCH   8   9
ATOM      9  N   PHE A   1      -8.256  15.429  14.976  0.00  0.00    -0.239 NA
ATOM     10  H   PHE A   1      -8.619  15.562  14.010  0.00  0.00    +0.142 HD
ENDBRANCH   8   9
BRANCH   8  11
ATOM     11  C   PHE A   1      -6.214  14.303  15.824  0.00  0.00    +0.224 C 
ATOM     12  O   PHE A   1      -5.789  13.636  16.813  0.00  0.00    -0.287 OA
ENDBRANCH   8  11
ENDBRANCH   1   8
TORSDOF 4
REMARK  Name = ../refined-set-2016/1ydd/1ydd_pocket.pdb
REMARK  147 active torsions:
REMARK  status: ('A' for Active; 'I' for Inactive)
REMARK    1  A    between atoms: _1  and  _3
REMARK    2  A    between atoms: _3  and  _4
REMARK    3  A    between atoms: _3  and  _6
REMARK    4  A    between atoms: _6  and  _7
REMARK    5  A    between atoms: _17  and  _19
REMARK    6  A    between atoms: _19  and  _20
REMARK    7  A    between atoms: _19  and  _22
REMARK    8  A    between atoms: _22  and  _23
REMARK    9  A    between atoms: _28  and  _29
REMARK   10  A    between atoms: _31  and  _33
REMARK   11  A    between atoms: _33  and  _34
REMARK   12  A    between atoms: _33  and  _36
REMARK   13  A    between atoms: _36  and  _37
REMARK   14  A    between atoms: _40  and  _41
REMARK   15  A    between atoms: _46  and  _48
REMARK   16  A    between atoms: _48  and  _49
REMARK   17  A    between atoms: _48  and  _51
REMARK   18  A    between atoms: _51  and  _52
REMARK   19  A    between atoms: _57  and  _59
REMARK   20  A    between atoms: _59  and  _60
REMARK   21  A    between atoms: _59  and  _62
REMARK   22  A    between atoms: _62  and  _63
REMARK   23  A    between atoms: _68  and  _70
REMARK   24  A    between atoms: _70  and  _71
REMARK   25  A    between atoms: _74  and  _76
REMARK   26  A    between atoms: _76  and  _77
REMARK   27  A    between atoms: _76  and  _79
REMARK   28  A    between atoms: _79  and  _80
REMARK   29  A    between atoms: _85  and  _87
REMARK   30  A    between atoms: _87  and  _88
REMARK   31  A    between atoms: _87  and  _90
REMARK   32  A    between atoms: _90  and  _91
REMARK   33  A    between atoms: _94  and  _96
REMARK   34  A    between atoms: _96  and  _97
REMARK   35  A    between atoms: _96  and  _99
REMARK   36  A    between atoms: _99  and  _100
REMARK   37  A    between atoms: _100  and  _101
REMARK   38  A    between atoms: _106  and  _108
REMARK   39  A    between atoms: _108  and  _109
REMARK   40  A    between atoms: _108  and  _111
REMARK   41  A    between atoms: _111  and  _112
REMARK   42  A    between atoms: _118  and  _120
REMARK   43  A    between atoms: _131  and  _134
REMARK   44  A    between atoms: _134  and  _135
REMARK   45  A    between atoms: _143  and  _144
REMARK   46  A    between atoms: _152  and  _154
REMARK   47  A    between atoms: _154  and  _155
REMARK   48  A    between atoms: _154  and  _157
REMARK   49  A    between atoms: _157  and  _158
REMARK   50  A    between atoms: _158  and  _159
REMARK   51  A    between atoms: _162  and  _164
REMARK   52  A    between atoms: _164  and  _165
REMARK   53  A    between atoms: _164  and  _167
REMARK   54  A    between atoms: _167  and  _168
REMARK   55  A    between atoms: _173  and  _175
REMARK   56  A    between atoms: _175  and  _176
REMARK   57  A    between atoms: _175  and  _178
REMARK   58  A    between atoms: _179  and  _180
REMARK   59  A    between atoms: _183  and  _185
REMARK   60  A    between atoms: _185  and  _186
REMARK   61  A    between atoms: _185  and  _188
REMARK   62  A    between atoms: _188  and  _189
REMARK   63  A    between atoms: _192  and  _194
REMARK   64  A    between atoms: _194  and  _195
REMARK   65  A    between atoms: _194  and  _197
REMARK   66  A    between atoms: _197  and  _198
REMARK   67  A    between atoms: _199  and  ZN_426
REMARK   68  A    between atoms: _203  and  _205
REMARK   69  A    between atoms: _205  and  _206
REMARK   70  A    between atoms: _205  and  _208
REMARK   71  A    between atoms: _208  and  _209
REMARK   72  A    between atoms: _212  and  _214
REMARK   73  A    between atoms: _214  and  _215
REMARK   74  A    between atoms: _214  and  _217
REMARK   75  A    between atoms: _220  and  _222
REMARK   76  A    between atoms: _222  and  _223
REMARK   77  A    between atoms: _222  and  _225
REMARK   78  A    between atoms: _225  and  _226
REMARK   79  A    between atoms: _231  and  _233
REMARK   80  A    between atoms: _233  and  _234
REMARK   81  A    between atoms: _233  and  _236
REMARK   82  A    between atoms: _236  and  _237
REMARK   83  A    between atoms: _247  and  _249
REMARK   84  A    between atoms: _249  and  _250
REMARK   85  A    between atoms: _249  and  _252
REMARK   86  A    between atoms: _252  and  _253
REMARK   87  A    between atoms: _259  and  _261
REMARK   88  A    between atoms: _261  and  _262
REMARK   89  A    between atoms: _261  and  _264
REMARK   90  A    between atoms: _267  and  _269
REMARK   91  A    between atoms: _269  and  _270
REMARK   92  A    between atoms: _269  and  _272
REMARK   93  A    between atoms: _272  and  _273
REMARK   94  A    between atoms: _276  and  _278
REMARK   95  A    between atoms: _278  and  _279
REMARK   96  A    between atoms: _282  and  _284
REMARK   97  A    between atoms: _284  and  _285
REMARK   98  A    between atoms: _284  and  _287
REMARK   99  A    between atoms: _290  and  _292
REMARK  100  A    between atoms: _292  and  _293
REMARK  101  A    between atoms: _292  and  _295
REMARK  102  A    between atoms: _295  and  _296
REMARK  103  A    between atoms: _299  and  _301
REMARK  104  A    between atoms: _301  and  _302
REMARK  105  A    between atoms: _301  and  _304
REMARK  106  A    between atoms: _304  and  _305
REMARK  107  A    between atoms: _307  and  _309
REMARK  108  A    between atoms: _309  and  _310
REMARK  109  A    between atoms: _309  and  _312
REMARK  110  A    between atoms: _312  and  _313
REMARK  111  A    between atoms: _313  and  _314
REMARK  112  A    between atoms: _314  and  _315
REMARK  113  A    between atoms: _324  and  _326
REMARK  114  A    between atoms: _326  and  _327
REMARK  115  A    between atoms: _326  and  _329
REMARK  116  A    between atoms: _329  and  _330
REMARK  117  A    between atoms: _333  and  _335
REMARK  118  A    between atoms: _335  and  _336
REMARK  119  A    between atoms: _335  and  _338
REMARK  120  A    between atoms: _338  and  _339
REMARK  121  A    between atoms: _343  and  _344
REMARK  122  A    between atoms: _350  and  _351
REMARK  123  A    between atoms: _356  and  _358
REMARK  124  A    between atoms: _358  and  _359
REMARK  125  A    between atoms: _358  and  _361
REMARK  126  A    between atoms: _361  and  _362
REMARK  127  A    between atoms: _365  and  _367
REMARK  128  A    between atoms: _367  and  _368
REMARK  129  A    between atoms: _367  and  _370
REMARK  130  A    between atoms: _370  and  _371
REMARK  131  A    between atoms: _374  and  _376
REMARK  132  A    between atoms: _376  and  _377
REMARK  133  A    between atoms: _376  and  _379
REMARK  134  A    between atoms: _382  and  _384
REMARK  135  A    between atoms: _384  and  _385
REMARK  136  A    between atoms: _384  and  _387
REMARK  137  A    between atoms: _387  and  _388
REMARK  138  A    between atoms: _398  and  _400
REMARK  139  A    between atoms: _400  and  _401
REMARK  140  A    between atoms: _400  and  _403
REMARK  141  A    between atoms: _403  and  _404
REMARK  142  A    between atoms: _409  and  _411
REMARK  143  A    between atoms: _411  and  _412
REMARK  144  A    between atoms: _411  and  _414
REMARK  145  A    between atoms: _414  and  _415
REMARK  146  A    between atoms: _415  and  _416
REMARK  147  A    between atoms: _416  and  _417
REMARK                            x       y       z     vdW  Elec       q    Type
REMARK                         _______ _______ _______ _____ _____    ______ ____
ROOT
ATOM      1  CA  VAL A   1      -3.603  12.301  20.063  0.00  0.00    +0.133 C 
ENDROOT
BRANCH   1   2
ATOM      2  CB  VAL A   1      -3.059  11.634  18.791  0.00  0.00    +0.023 C 
ATOM      3  CG2 VAL A   1      -3.979  10.592  18.226  0.00  0.00    +0.002 C 
ATOM      4  CG1 VAL A   1      -2.673  12.677  17.802  0.00  0.00    +0.002 C 
ENDBRANCH   1   2
BRANCH   1   5
ATOM      5  N   VAL A   1      -4.725  13.219  19.780  0.00  0.00    -0.239 NA
ATOM      6  H   VAL A   1      -4.746  13.675  18.845  0.00  0.00    +0.142 HD
ENDBRANCH   1   5
BRANCH   1   7
ATOM      7  C   VAL A   1      -2.562  12.969  20.981  0.00  0.00    +0.224 C 
ATOM      8  O   VAL A   1      -1.427  12.385  21.052  0.00  0.00    -0.287 OA
ENDBRANCH   1   7
TORSDOF 3
REMARK  Name = ../refined-set-2016/1ydd/1ydd_pocket.pdb
REMARK  147 active torsions:
REMARK  status: ('A' for Active; 'I' for Inactive)
REMARK    1  A    between atoms: _1  and  _3
REMARK    2  A    between atoms: _3  and  _4
REMARK    3  A    between atoms: _3  and  _6
REMARK    4  A    between atoms: _6  and  _7
REMARK    5  A    between atoms: _17  and  _19
REMARK    6  A    between atoms: _19  and  _20
REMARK    7  A    between atoms: _19  and  _22
REMARK    8  A    between atoms: _22  and  _23
REMARK    9  A    between atoms: _28  and  _29
REMARK   10  A    between atoms: _31  and  _33
REMARK   11  A    between atoms: _33  and  _34
REMARK   12  A    between atoms: _33  and  _36
REMARK   13  A    between atoms: _36  and  _37
REMARK   14  A    between atoms: _40  and  _41
REMARK   15  A    between atoms: _46  and  _48
REMARK   16  A    between atoms: _48  and  _49
REMARK   17  A    between atoms: _48  and  _51
REMARK   18  A    between atoms: _51  and  _52
REMARK   19  A    between atoms: _57  and  _59
REMARK   20  A    between atoms: _59  and  _60
REMARK   21  A    between atoms: _59  and  _62
REMARK   22  A    between atoms: _62  and  _63
REMARK   23  A    between atoms: _68  and  _70
REMARK   24  A    between atoms: _70  and  _71
REMARK   25  A    between atoms: _74  and  _76
REMARK   26  A    between atoms: _76  and  _77
REMARK   27  A    between atoms: _76  and  _79
REMARK   28  A    between atoms: _79  and  _80
REMARK   29  A    between atoms: _85  and  _87
REMARK   30  A    between atoms: _87  and  _88
REMARK   31  A    between atoms: _87  and  _90
REMARK   32  A    between atoms: _90  and  _91
REMARK   33  A    between atoms: _94  and  _96
REMARK   34  A    between atoms: _96  and  _97
REMARK   35  A    between atoms: _96  and  _99
REMARK   36  A    between atoms: _99  and  _100
REMARK   37  A    between atoms: _100  and  _101
REMARK   38  A    between atoms: _106  and  _108
REMARK   39  A    between atoms: _108  and  _109
REMARK   40  A    between atoms: _108  and  _111
REMARK   41  A    between atoms: _111  and  _112
REMARK   42  A    between atoms: _118  and  _120
REMARK   43  A    between atoms: _131  and  _134
REMARK   44  A    between atoms: _134  and  _135
REMARK   45  A    between atoms: _143  and  _144
REMARK   46  A    between atoms: _152  and  _154
REMARK   47  A    between atoms: _154  and  _155
REMARK   48  A    between atoms: _154  and  _157
REMARK   49  A    between atoms: _157  and  _158
REMARK   50  A    between atoms: _158  and  _159
REMARK   51  A    between atoms: _162  and  _164
REMARK   52  A    between atoms: _164  and  _165
REMARK   53  A    between atoms: _164  and  _167
REMARK   54  A    between atoms: _167  and  _168
REMARK   55  A    between atoms: _173  and  _175
REMARK   56  A    between atoms: _175  and  _176
REMARK   57  A    between atoms: _175  and  _178
REMARK   58  A    between atoms: _179  and  _180
REMARK   59  A    between atoms: _183  and  _185
REMARK   60  A    between atoms: _185  and  _186
REMARK   61  A    between atoms: _185  and  _188
REMARK   62  A    between atoms: _188  and  _189
REMARK   63  A    between atoms: _192  and  _194
REMARK   64  A    between atoms: _194  and  _195
REMARK   65  A    between atoms: _194  and  _197
REMARK   66  A    between atoms: _197  and  _198
REMARK   67  A    between atoms: _199  and  ZN_426
REMARK   68  A    between atoms: _203  and  _205
REMARK   69  A    between atoms: _205  and  _206
REMARK   70  A    between atoms: _205  and  _208
REMARK   71  A    between atoms: _208  and  _209
REMARK   72  A    between atoms: _212  and  _214
REMARK   73  A    between atoms: _214  and  _215
REMARK   74  A    between atoms: _214  and  _217
REMARK   75  A    between atoms: _220  and  _222
REMARK   76  A    between atoms: _222  and  _223
REMARK   77  A    between atoms: _222  and  _225
REMARK   78  A    between atoms: _225  and  _226
REMARK   79  A    between atoms: _231  and  _233
REMARK   80  A    between atoms: _233  and  _234
REMARK   81  A    between atoms: _233  and  _236
REMARK   82  A    between atoms: _236  and  _237
REMARK   83  A    between atoms: _247  and  _249
REMARK   84  A    between atoms: _249  and  _250
REMARK   85  A    between atoms: _249  and  _252
REMARK   86  A    between atoms: _252  and  _253
REMARK   87  A    between atoms: _259  and  _261
REMARK   88  A    between atoms: _261  and  _262
REMARK   89  A    between atoms: _261  and  _264
REMARK   90  A    between atoms: _267  and  _269
REMARK   91  A    between atoms: _269  and  _270
REMARK   92  A    between atoms: _269  and  _272
REMARK   93  A    between atoms: _272  and  _273
REMARK   94  A    between atoms: _276  and  _278
REMARK   95  A    between atoms: _278  and  _279
REMARK   96  A    between atoms: _282  and  _284
REMARK   97  A    between atoms: _284  and  _285
REMARK   98  A    between atoms: _284  and  _287
REMARK   99  A    between atoms: _290  and  _292
REMARK  100  A    between atoms: _292  and  _293
REMARK  101  A    between atoms: _292  and  _295
REMARK  102  A    between atoms: _295  and  _296
REMARK  103  A    between atoms: _299  and  _301
REMARK  104  A    between atoms: _301  and  _302
REMARK  105  A    between atoms: _301  and  _304
REMARK  106  A    between atoms: _304  and  _305
REMARK  107  A    between atoms: _307  and  _309
REMARK  108  A    between atoms: _309  and  _310
REMARK  109  A    between atoms: _309  and  _312
REMARK  110  A    between atoms: _312  and  _313
REMARK  111  A    between atoms: _313  and  _314
REMARK  112  A    between atoms: _314  and  _315
REMARK  113  A    between atoms: _324  and  _326
REMARK  114  A    between atoms: _326  and  _327
REMARK  115  A    between atoms: _326  and  _329
REMARK  116  A    between atoms: _329  and  _330
REMARK  117  A    between atoms: _333  and  _335
REMARK  118  A    between atoms: _335  and  _336
REMARK  119  A    between atoms: _335  and  _338
REMARK  120  A    between atoms: _338  and  _339
REMARK  121  A    between atoms: _343  and  _344
REMARK  122  A    between atoms: _350  and  _351
REMARK  123  A    between atoms: _356  and  _358
REMARK  124  A    between atoms: _358  and  _359
REMARK  125  A    between atoms: _358  and  _361
REMARK  126  A    between atoms: _361  and  _362
REMARK  127  A    between atoms: _365  and  _367
REMARK  128  A    between atoms: _367  and  _368
REMARK  129  A    between atoms: _367  and  _370
REMARK  130  A    between atoms: _370  and  _371
REMARK  131  A    between atoms: _374  and  _376
REMARK  132  A    between atoms: _376  and  _377
REMARK  133  A    between atoms: _376  and  _379
REMARK  134  A    between atoms: _382  and  _384
REMARK  135  A    between atoms: _384  and  _385
REMARK  136  A    between atoms: _384  and  _387
REMARK  137  A    between atoms: _387  and  _388
REMARK  138  A    between atoms: _398  and  _400
REMARK  139  A    between atoms: _400  and  _401
REMARK  140  A    between atoms: _400  and  _403
REMARK  141  A    between atoms: _403  and  _404
REMARK  142  A    between atoms: _409  and  _411
REMARK  143  A    between atoms: _411  and  _412
REMARK  144  A    between atoms: _411  and  _414
REMARK  145  A    between atoms: _414  and  _415
REMARK  146  A    between atoms: _415  and  _416
REMARK  147  A    between atoms: _416  and  _417
REMARK                            x       y       z     vdW  Elec       q    Type
REMARK                         _______ _______ _______ _____ _____    ______ ____
ROOT
ATOM      1  C   ALA A   2     -12.297   5.046  20.981  0.00  0.00    +0.241 C 
ATOM      2  N   VAL A   3     -11.919   3.836  21.334  0.00  0.00    -0.297 N 
ATOM      3  H   VAL A   3     -11.567   3.650  22.295  0.00  0.00    +0.150 HD
ATOM      4  O   ALA A   2     -12.729   5.421  19.851  0.00  0.00    -0.273 OA
ENDROOT
BRANCH   1   5
ATOM      5  CA  ALA A   2     -12.189   6.130  22.041  0.00  0.00    +0.149 C 
ATOM      6  CB  ALA A   2     -13.586   6.755  22.323  0.00  0.00    +0.031 C 
BRANCH   5   9
ATOM      7  C   LEU A   1     -10.341   7.756  22.323  0.00  0.00    +0.238 C 
ATOM      8  O   LEU A   1     -10.141   7.506  23.524  0.00  0.00    -0.274 OA
ATOM      9  N   ALA A   2     -11.267   7.172  21.617  0.00  0.00    -0.297 N 
ATOM     10  H   ALA A   2     -11.358   7.489  20.631  0.00  0.00    +0.150 HD
BRANCH   7  11
ATOM     11  CA  LEU A   1      -9.455   8.715  21.546  0.00  0.00    +0.145 C 
BRANCH  11  12
ATOM     12  N   LEU A   1      -8.761   9.716  22.323  0.00  0.00    -0.238 NA
ATOM     13  H   LEU A   1      -8.044   9.380  22.998  0.00  0.00    +0.142 HD
ENDBRANCH  11  12
BRANCH  11  14
ATOM     14  CB  LEU A   1      -8.375   7.881  20.840  0.00  0.00    +0.026 C 
BRANCH  14  15
ATOM     15  CG  LEU A   1      -7.476   8.632  19.851  0.00  0.00    +0.002 C 
ATOM     16  CD2 LEU A   1      -6.542   7.673  19.215  0.00  0.00    +0.000 C 
ATOM     17  CD1 LEU A   1      -8.268   9.382  18.791  0.00  0.00    +0.000 C 
ENDBRANCH  14  15
ENDBRANCH  11  14
ENDBRANCH   7  11
ENDBRANCH   5   9
ENDBRANCH   1   5
BRANCH   2  18
ATOM     18  CA  VAL A   3     -12.003   2.752  20.345  0.00  0.00    +0.148 C 
BRANCH  18  19
ATOM     19  C   VAL A   3     -12.986   1.710  20.840  0.00  0.00    +0.240 C 
ATOM     20  O   VAL A   3     -13.000   1.293  22.041  0.00  0.00    -0.273 OA
ATOM     21  N   LEU A   4     -13.900   1.376  19.921  0.00  0.00    -0.302 N 
ATOM     22  H   LEU A   4     -13.868   1.860  19.001  0.00  0.00    +0.150 HD
BRANCH  21  23
ATOM     23  CA  LEU A   4     -14.937   0.375  20.133  0.00  0.00    +0.105 C 
BRANCH  23  24
ATOM     24  C   LEU A   4     -14.387  -0.917  19.497  0.00  0.00    +0.201 C 
ATOM     25  O   LEU A   4     -14.141  -0.917  18.226  0.00  0.00    -0.219 OA
ENDBRANCH  23  24
BRANCH  23  26
ATOM     26  CB  LEU A   4     -16.223   0.792  19.497  0.00  0.00    +0.022 C 
BRANCH  26  27
ATOM     27  CG  LEU A   4     -17.542   0.751  20.133  0.00  0.00    +0.002 C 
ATOM     28  CD2 LEU A   4     -17.757  -0.334  21.122  0.00  0.00    +0.000 C 
ATOM     29  CD1 LEU A   4     -18.571   0.625  19.003  0.00  0.00    +0.000 C 
ENDBRANCH  26  27
ENDBRANCH  23  26
ENDBRANCH  21  23
ENDBRANCH  18  19
BRANCH  18  30
ATOM     30  CB  VAL A   3     -10.606   2.210  20.063  0.00  0.00    +0.027 C 
ATOM     31  CG2 VAL A   3      -9.593   3.336  19.780  0.00  0.00    +0.002 C 
ATOM     32  CG1 VAL A   3     -10.592   1.209  18.862  0.00  0.00    +0.002 C 
ENDBRANCH  18  30
ENDBRANCH   2  18
TORSDOF 13
REMARK  Name = ../refined-set-2016/1ydd/1ydd_pocket.pdb
REMARK  147 active torsions:
REMARK  status: ('A' for Active; 'I' for Inactive)
REMARK    1  A    between atoms: _1  and  _3
REMARK    2  A    between atoms: _3  and  _4
REMARK    3  A    between atoms: _3  and  _6
REMARK    4  A    between atoms: _6  and  _7
REMARK    5  A    between atoms: _17  and  _19
REMARK    6  A    between atoms: _19  and  _20
REMARK    7  A    between atoms: _19  and  _22
REMARK    8  A    between atoms: _22  and  _23
REMARK    9  A    between atoms: _28  and  _29
REMARK   10  A    between atoms: _31  and  _33
REMARK   11  A    between atoms: _33  and  _34
REMARK   12  A    between atoms: _33  and  _36
REMARK   13  A    between atoms: _36  and  _37
REMARK   14  A    between atoms: _40  and  _41
REMARK   15  A    between atoms: _46  and  _48
REMARK   16  A    between atoms: _48  and  _49
REMARK   17  A    between atoms: _48  and  _51
REMARK   18  A    between atoms: _51  and  _52
REMARK   19  A    between atoms: _57  and  _59
REMARK   20  A    between atoms: _59  and  _60
REMARK   21  A    between atoms: _59  and  _62
REMARK   22  A    between atoms: _62  and  _63
REMARK   23  A    between atoms: _68  and  _70
REMARK   24  A    between atoms: _70  and  _71
REMARK   25  A    between atoms: _74  and  _76
REMARK   26  A    between atoms: _76  and  _77
REMARK   27  A    between atoms: _76  and  _79
REMARK   28  A    between atoms: _79  and  _80
REMARK   29  A    between atoms: _85  and  _87
REMARK   30  A    between atoms: _87  and  _88
REMARK   31  A    between atoms: _87  and  _90
REMARK   32  A    between atoms: _90  and  _91
REMARK   33  A    between atoms: _94  and  _96
REMARK   34  A    between atoms: _96  and  _97
REMARK   35  A    between atoms: _96  and  _99
REMARK   36  A    between atoms: _99  and  _100
REMARK   37  A    between atoms: _100  and  _101
REMARK   38  A    between atoms: _106  and  _108
REMARK   39  A    between atoms: _108  and  _109
REMARK   40  A    between atoms: _108  and  _111
REMARK   41  A    between atoms: _111  and  _112
REMARK   42  A    between atoms: _118  and  _120
REMARK   43  A    between atoms: _131  and  _134
REMARK   44  A    between atoms: _134  and  _135
REMARK   45  A    between atoms: _143  and  _144
REMARK   46  A    between atoms: _152  and  _154
REMARK   47  A    between atoms: _154  and  _155
REMARK   48  A    between atoms: _154  and  _157
REMARK   49  A    between atoms: _157  and  _158
REMARK   50  A    between atoms: _158  and  _159
REMARK   51  A    between atoms: _162  and  _164
REMARK   52  A    between atoms: _164  and  _165
REMARK   53  A    between atoms: _164  and  _167
REMARK   54  A    between atoms: _167  and  _168
REMARK   55  A    between atoms: _173  and  _175
REMARK   56  A    between atoms: _175  and  _176
REMARK   57  A    between atoms: _175  and  _178
REMARK   58  A    between atoms: _179  and  _180
REMARK   59  A    between atoms: _183  and  _185
REMARK   60  A    between atoms: _185  and  _186
REMARK   61  A    between atoms: _185  and  _188
REMARK   62  A    between atoms: _188  and  _189
REMARK   63  A    between atoms: _192  and  _194
REMARK   64  A    between atoms: _194  and  _195
REMARK   65  A    between atoms: _194  and  _197
REMARK   66  A    between atoms: _197  and  _198
REMARK   67  A    between atoms: _199  and  ZN_426
REMARK   68  A    between atoms: _203  and  _205
REMARK   69  A    between atoms: _205  and  _206
REMARK   70  A    between atoms: _205  and  _208
REMARK   71  A    between atoms: _208  and  _209
REMARK   72  A    between atoms: _212  and  _214
REMARK   73  A    between atoms: _214  and  _215
REMARK   74  A    between atoms: _214  and  _217
REMARK   75  A    between atoms: _220  and  _222
REMARK   76  A    between atoms: _222  and  _223
REMARK   77  A    between atoms: _222  and  _225
REMARK   78  A    between atoms: _225  and  _226
REMARK   79  A    between atoms: _231  and  _233
REMARK   80  A    between atoms: _233  and  _234
REMARK   81  A    between atoms: _233  and  _236
REMARK   82  A    between atoms: _236  and  _237
REMARK   83  A    between atoms: _247  and  _249
REMARK   84  A    between atoms: _249  and  _250
REMARK   85  A    between atoms: _249  and  _252
REMARK   86  A    between atoms: _252  and  _253
REMARK   87  A    between atoms: _259  and  _261
REMARK   88  A    between atoms: _261  and  _262
REMARK   89  A    between atoms: _261  and  _264
REMARK   90  A    between atoms: _267  and  _269
REMARK   91  A    between atoms: _269  and  _270
REMARK   92  A    between atoms: _269  and  _272
REMARK   93  A    between atoms: _272  and  _273
REMARK   94  A    between atoms: _276  and  _278
REMARK   95  A    between atoms: _278  and  _279
REMARK   96  A    between atoms: _282  and  _284
REMARK   97  A    between atoms: _284  and  _285
REMARK   98  A    between atoms: _284  and  _287
REMARK   99  A    between atoms: _290  and  _292
REMARK  100  A    between atoms: _292  and  _293
REMARK  101  A    between atoms: _292  and  _295
REMARK  102  A    between atoms: _295  and  _296
REMARK  103  A    between atoms: _299  and  _301
REMARK  104  A    between atoms: _301  and  _302
REMARK  105  A    between atoms: _301  and  _304
REMARK  106  A    between atoms: _304  and  _305
REMARK  107  A    between atoms: _307  and  _309
REMARK  108  A    between atoms: _309  and  _310
REMARK  109  A    between atoms: _309  and  _312
REMARK  110  A    between atoms: _312  and  _313
REMARK  111  A    between atoms: _313  and  _314
REMARK  112  A    between atoms: _314  and  _315
REMARK  113  A    between atoms: _324  and  _326
REMARK  114  A    between atoms: _326  and  _327
REMARK  115  A    between atoms: _326  and  _329
REMARK  116  A    between atoms: _329  and  _330
REMARK  117  A    between atoms: _333  and  _335
REMARK  118  A    between atoms: _335  and  _336
REMARK  119  A    between atoms: _335  and  _338
REMARK  120  A    between atoms: _338  and  _339
REMARK  121  A    between atoms: _343  and  _344
REMARK  122  A    between atoms: _350  and  _351
REMARK  123  A    between atoms: _356  and  _358
REMARK  124  A    between atoms: _358  and  _359
REMARK  125  A    between atoms: _358  and  _361
REMARK  126  A    between atoms: _361  and  _362
REMARK  127  A    between atoms: _365  and  _367
REMARK  128  A    between atoms: _367  and  _368
REMARK  129  A    between atoms: _367  and  _370
REMARK  130  A    between atoms: _370  and  _371
REMARK  131  A    between atoms: _374  and  _376
REMARK  132  A    between atoms: _376  and  _377
REMARK  133  A    between atoms: _376  and  _379
REMARK  134  A    between atoms: _382  and  _384
REMARK  135  A    between atoms: _384  and  _385
REMARK  136  A    between atoms: _384  and  _387
REMARK  137  A    between atoms: _387  and  _388
REMARK  138  A    between atoms: _398  and  _400
REMARK  139  A    between atoms: _400  and  _401
REMARK  140  A    between atoms: _400  and  _403
REMARK  141  A    between atoms: _403  and  _404
REMARK  142  A    between atoms: _409  and  _411
REMARK  143  A    between atoms: _411  and  _412
REMARK  144  A    between atoms: _411  and  _414
REMARK  145  A    between atoms: _414  and  _415
REMARK  146  A    between atoms: _415  and  _416
REMARK  147  A    between atoms: _416  and  _417
REMARK                            x       y       z     vdW  Elec       q    Type
REMARK                         _______ _______ _______ _____ _____    ______ ____
ROOT
ATOM      1  CA  THR A   4       0.166   0.208  16.248  0.00  0.00    +0.176 C 
ENDROOT
BRANCH   1   2
ATOM      2  C   THR A   4       0.922   1.501  16.460  0.00  0.00    +0.246 C 
ATOM      3  O   THR A   4       0.390   2.460  17.025  0.00  0.00    -0.273 OA
ATOM      4  N   PRO A   5       2.143   1.543  16.036  0.00  0.00    -0.272 N 
ATOM      5  CA  PRO A   5       3.002   2.710  16.177  0.00  0.00    +0.152 C 
ATOM      6  CB  PRO A   5       4.315   2.293  15.400  0.00  0.00    +0.031 C 
ATOM      7  CG  PRO A   5       4.370   0.751  15.683  0.00  0.00    +0.024 C 
ATOM      8  CD  PRO A   5       2.906   0.375  15.400  0.00  0.00    +0.094 C 
BRANCH   5   9
ATOM      9  C   PRO A   5       2.326   3.920  15.824  0.00  0.00    +0.244 C 
ATOM     10  N   PRO A   6       2.496   5.087  16.318  0.00  0.00    -0.272 N 
ATOM     11  CA  PRO A   6       3.245   5.588  17.378  0.00  0.00    +0.152 C 
ATOM     12  CB  PRO A   6       3.330   7.131  17.378  0.00  0.00    +0.031 C 
ATOM     13  CG  PRO A   6       2.429   7.548  16.248  0.00  0.00    +0.024 C 
ATOM     14  CD  PRO A   6       1.734   6.255  15.965  0.00  0.00    +0.094 C 
ATOM     15  O   PRO A   5       1.668   3.503  14.906  0.00  0.00    -0.273 OA
BRANCH  11  16
ATOM     16  C   PRO A   6       2.834   5.087  18.791  0.00  0.00    +0.241 C 
ATOM     17  O   PRO A   6       3.430   5.546  19.780  0.00  0.00    -0.273 OA
ATOM     18  N   LEU A   7       1.919   4.170  18.862  0.00  0.00    -0.297 N 
ATOM     19  H   LEU A   7       1.500   3.842  17.969  0.00  0.00    +0.150 HD
BRANCH  18  20
ATOM     20  CA  LEU A   7       1.417   3.544  20.133  0.00  0.00    +0.149 C 
BRANCH  20  21
ATOM     21  C   LEU A   7       1.037   4.504  21.263  0.00  0.00    +0.241 C 
ATOM     22  O   LEU A   7       1.237   4.087  22.464  0.00  0.00    -0.273 OA
ATOM     23  N   LEU A   8       0.574   5.671  20.910  0.00  0.00    -0.298 N 
ATOM     24  H   LEU A   8       0.470   5.881  19.897  0.00  0.00    +0.150 HD
BRANCH  23  25
ATOM     25  CA  LEU A   8       0.188   6.714  21.899  0.00  0.00    +0.137 C 
BRANCH  25  26
ATOM     26  C   LEU A   8      -0.905   6.297  22.818  0.00  0.00    +0.227 C 
ATOM     27  O   LEU A   8      -1.942   5.713  22.535  0.00  0.00    -0.286 OA
ENDBRANCH  25  26
BRANCH  25  28
ATOM     28  CB  LEU A   8      -0.146   7.965  21.052  0.00  0.00    +0.028 C 
BRANCH  28  29
ATOM     29  CG  LEU A   8       0.832   8.340  19.921  0.00  0.00    +0.002 C 
ATOM     30  CD2 LEU A   8       2.160   8.674  20.557  0.00  0.00    +0.000 C 
ATOM     31  CD1 LEU A   8       0.265   9.466  19.144  0.00  0.00    +0.000 C 
ENDBRANCH  28  29
ENDBRANCH  25  28
ENDBRANCH  23  25
ENDBRANCH  20  21
BRANCH  20  32
ATOM     32  CB  LEU A   7       2.526   2.627  20.628  0.00  0.00    +0.029 C 
BRANCH  32  33
ATOM     33  CG  LEU A   7       3.083   1.585  19.639  0.00  0.00    +0.002 C 
ATOM     34  CD2 LEU A   7       4.326   1.001  20.274  0.00  0.00    +0.000 C 
ATOM     35  CD1 LEU A   7       2.107   0.542  19.285  0.00  0.00    +0.000 C 
ENDBRANCH  32  33
ENDBRANCH  20  32
ENDBRANCH  18  20
ENDBRANCH  11  16
ENDBRANCH   5   9
ENDBRANCH   1   2
BRANCH   1  38
ATOM     36  C   THR A   3      -1.063  -0.917  18.014  0.00  0.00    +0.243 C 
ATOM     37  O   THR A   3      -0.404  -2.002  17.943  0.00  0.00    -0.273 OA
ATOM     38  N   THR A   4      -0.879   0.125  17.307  0.00  0.00    -0.295 N 
ATOM     39  H   THR A   4      -1.484   0.954  17.476  0.00  0.00    +0.150 HD
BRANCH  36  40
ATOM     40  CA  THR A   3      -2.126  -0.876  19.144  0.00  0.00    +0.176 C 
BRANCH  40  43
ATOM     41  C   ARG A   2      -2.389   1.376  19.992  0.00  0.00    +0.241 C 
ATOM     42  O   ARG A   2      -1.317   1.334  20.628  0.00  0.00    -0.273 OA
ATOM     43  N   THR A   3      -2.827   0.417  19.215  0.00  0.00    -0.295 N 
ATOM     44  H   THR A   3      -3.681   0.571  18.641  0.00  0.00    +0.150 HD
BRANCH  41  45
ATOM     45  CA  ARG A   2      -3.158   2.710  19.992  0.00  0.00    +0.149 C 
BRANCH  45  48
ATOM     46  C   SER A   1      -3.442   2.460  22.394  0.00  0.00    +0.241 C 
ATOM     47  O   SER A   1      -4.192   1.459  22.323  0.00  0.00    -0.274 OA
ATOM     48  N   ARG A   2      -2.928   3.169  21.405  0.00  0.00    -0.297 N 
ATOM     49  H   ARG A   2      -2.375   4.028  21.600  0.00  0.00    +0.150 HD
BRANCH  46  50
ATOM     50  CA  SER A   1      -2.999   2.961  23.807  0.00  0.00    +0.174 C 
BRANCH  50  51
ATOM     51  N   SER A   1      -3.677   2.293  24.937  0.00  0.00    -0.236 NA
ATOM     52  H   SER A   1      -3.751   1.256  24.922  0.00  0.00    +0.142 HD
ENDBRANCH  50  51
BRANCH  50  53
ATOM     53  CB  SER A   1      -1.498   2.627  23.948  0.00  0.00    +0.163 C 
BRANCH  53  54
ATOM     54  OG  SER A   1      -1.284   1.293  23.453  0.00  0.00    -0.380 OA
ATOM     55  H   SER A   1      -1.555   1.248  22.502  0.00  0.00    +0.211 HD
ENDBRANCH  53  54
ENDBRANCH  50  53
ENDBRANCH  46  50
ENDBRANCH  45  48
BRANCH  45  56
ATOM     56  CB  ARG A   2      -2.601   3.670  19.003  0.00  0.00    +0.033 C 
BRANCH  56  57
ATOM     57  CG  ARG A   2      -2.423   2.961  17.661  0.00  0.00    +0.045 C 
BRANCH  57  58
ATOM     58  CD  ARG A   2      -1.653   3.795  16.672  0.00  0.00    +0.174 C 
BRANCH  58  59
ATOM     59  NE  ARG A   2      -2.286   5.046  16.318  0.00  0.00    -0.265 N 
ATOM     60  HE  ARG A   2      -2.772   5.601  17.051  0.00  0.00    +0.259 HD
ATOM     61  CZ  ARG A   2      -2.254   5.504  15.047  0.00  0.00    +0.342 C 
ATOM     62  NH2 ARG A   2      -2.992   6.589  14.764  0.00  0.00    -0.292 N 
ATOM     63 HH21 ARG A   2      -3.558   7.042  15.510  0.00  0.00    +0.255 HD
ATOM     64 HH22 ARG A   2      -2.998   6.977  13.799  0.00  0.00    +0.255 HD
ATOM     65  NH1 ARG A   2      -1.612   4.837  14.058  0.00  0.00    -0.292 N 
ATOM     66 HH11 ARG A   2      -1.123   3.943  14.266  0.00  0.00    +0.255 HD
ATOM     67 HH12 ARG A   2      -1.608   5.219  13.091  0.00  0.00    +0.255 HD
ENDBRANCH  58  59
ENDBRANCH  57  58
ENDBRANCH  56  57
ENDBRANCH  45  56
ENDBRANCH  41  45
ENDBRANCH  40  43
BRANCH  40  68
ATOM     68  CB  THR A   3      -3.089  -2.085  19.074  0.00  0.00    +0.137 C 
ATOM     69  CG2 THR A   3      -3.957  -2.210  20.274  0.00  0.00    +0.034 C 
BRANCH  68  70
ATOM     70  OG1 THR A   3      -3.863  -1.960  17.943  0.00  0.00    -0.382 OA
ATOM     71  HG1 THR A   3      -4.486  -2.728  17.884  0.00  0.00    +0.210 HD
ENDBRANCH  68  70
ENDBRANCH  40  68
ENDBRANCH  36  40
ENDBRANCH   1  38
BRANCH   1  72
ATOM     72  CB  THR A   4      -0.491   0.083  14.835  0.00  0.00    +0.137 C 
ATOM     73  CG2 THR A   4      -1.436  -1.084  14.694  0.00  0.00    +0.034 C 
BRANCH  72  74
ATOM     74  OG1 THR A   4      -1.180   1.293  14.694  0.00  0.00    -0.382 OA
ATOM     75  HG1 THR A   4      -0.538   2.045  14.749  0.00  0.00    +0.210 HD
ENDBRANCH  72  74
ENDBRANCH   1  72
TORSDOF 28
REMARK  Name = ../refined-set-2016/1ydd/1ydd_pocket.pdb
REMARK  147 active torsions:
REMARK  status: ('A' for Active; 'I' for Inactive)
REMARK    1  A    between atoms: _1  and  _3
REMARK    2  A    between atoms: _3  and  _4
REMARK    3  A    between atoms: _3  and  _6
REMARK    4  A    between atoms: _6  and  _7
REMARK    5  A    between atoms: _17  and  _19
REMARK    6  A    between atoms: _19  and  _20
REMARK    7  A    between atoms: _19  and  _22
REMARK    8  A    between atoms: _22  and  _23
REMARK    9  A    between atoms: _28  and  _29
REMARK   10  A    between atoms: _31  and  _33
REMARK   11  A    between atoms: _33  and  _34
REMARK   12  A    between atoms: _33  and  _36
REMARK   13  A    between atoms: _36  and  _37
REMARK   14  A    between atoms: _40  and  _41
REMARK   15  A    between atoms: _46  and  _48
REMARK   16  A    between atoms: _48  and  _49
REMARK   17  A    between atoms: _48  and  _51
REMARK   18  A    between atoms: _51  and  _52
REMARK   19  A    between atoms: _57  and  _59
REMARK   20  A    between atoms: _59  and  _60
REMARK   21  A    between atoms: _59  and  _62
REMARK   22  A    between atoms: _62  and  _63
REMARK   23  A    between atoms: _68  and  _70
REMARK   24  A    between atoms: _70  and  _71
REMARK   25  A    between atoms: _74  and  _76
REMARK   26  A    between atoms: _76  and  _77
REMARK   27  A    between atoms: _76  and  _79
REMARK   28  A    between atoms: _79  and  _80
REMARK   29  A    between atoms: _85  and  _87
REMARK   30  A    between atoms: _87  and  _88
REMARK   31  A    between atoms: _87  and  _90
REMARK   32  A    between atoms: _90  and  _91
REMARK   33  A    between atoms: _94  and  _96
REMARK   34  A    between atoms: _96  and  _97
REMARK   35  A    between atoms: _96  and  _99
REMARK   36  A    between atoms: _99  and  _100
REMARK   37  A    between atoms: _100  and  _101
REMARK   38  A    between atoms: _106  and  _108
REMARK   39  A    between atoms: _108  and  _109
REMARK   40  A    between atoms: _108  and  _111
REMARK   41  A    between atoms: _111  and  _112
REMARK   42  A    between atoms: _118  and  _120
REMARK   43  A    between atoms: _131  and  _134
REMARK   44  A    between atoms: _134  and  _135
REMARK   45  A    between atoms: _143  and  _144
REMARK   46  A    between atoms: _152  and  _154
REMARK   47  A    between atoms: _154  and  _155
REMARK   48  A    between atoms: _154  and  _157
REMARK   49  A    between atoms: _157  and  _158
REMARK   50  A    between atoms: _158  and  _159
REMARK   51  A    between atoms: _162  and  _164
REMARK   52  A    between atoms: _164  and  _165
REMARK   53  A    between atoms: _164  and  _167
REMARK   54  A    between atoms: _167  and  _168
REMARK   55  A    between atoms: _173  and  _175
REMARK   56  A    between atoms: _175  and  _176
REMARK   57  A    between atoms: _175  and  _178
REMARK   58  A    between atoms: _179  and  _180
REMARK   59  A    between atoms: _183  and  _185
REMARK   60  A    between atoms: _185  and  _186
REMARK   61  A    between atoms: _185  and  _188
REMARK   62  A    between atoms: _188  and  _189
REMARK   63  A    between atoms: _192  and  _194
REMARK   64  A    between atoms: _194  and  _195
REMARK   65  A    between atoms: _194  and  _197
REMARK   66  A    between atoms: _197  and  _198
REMARK   67  A    between atoms: _199  and  ZN_426
REMARK   68  A    between atoms: _203  and  _205
REMARK   69  A    between atoms: _205  and  _206
REMARK   70  A    between atoms: _205  and  _208
REMARK   71  A    between atoms: _208  and  _209
REMARK   72  A    between atoms: _212  and  _214
REMARK   73  A    between atoms: _214  and  _215
REMARK   74  A    between atoms: _214  and  _217
REMARK   75  A    between atoms: _220  and  _222
REMARK   76  A    between atoms: _222  and  _223
REMARK   77  A    between atoms: _222  and  _225
REMARK   78  A    between atoms: _225  and  _226
REMARK   79  A    between atoms: _231  and  _233
REMARK   80  A    between atoms: _233  and  _234
REMARK   81  A    between atoms: _233  and  _236
REMARK   82  A    between atoms: _236  and  _237
REMARK   83  A    between atoms: _247  and  _249
REMARK   84  A    between atoms: _249  and  _250
REMARK   85  A    between atoms: _249  and  _252
REMARK   86  A    between atoms: _252  and  _253
REMARK   87  A    between atoms: _259  and  _261
REMARK   88  A    between atoms: _261  and  _262
REMARK   89  A    between atoms: _261  and  _264
REMARK   90  A    between atoms: _267  and  _269
REMARK   91  A    between atoms: _269  and  _270
REMARK   92  A    between atoms: _269  and  _272
REMARK   93  A    between atoms: _272  and  _273
REMARK   94  A    between atoms: _276  and  _278
REMARK   95  A    between atoms: _278  and  _279
REMARK   96  A    between atoms: _282  and  _284
REMARK   97  A    between atoms: _284  and  _285
REMARK   98  A    between atoms: _284  and  _287
REMARK   99  A    between atoms: _290  and  _292
REMARK  100  A    between atoms: _292  and  _293
REMARK  101  A    between atoms: _292  and  _295
REMARK  102  A    between atoms: _295  and  _296
REMARK  103  A    between atoms: _299  and  _301
REMARK  104  A    between atoms: _301  and  _302
REMARK  105  A    between atoms: _301  and  _304
REMARK  106  A    between atoms: _304  and  _305
REMARK  107  A    between atoms: _307  and  _309
REMARK  108  A    between atoms: _309  and  _310
REMARK  109  A    between atoms: _309  and  _312
REMARK  110  A    between atoms: _312  and  _313
REMARK  111  A    between atoms: _313  and  _314
REMARK  112  A    between atoms: _314  and  _315
REMARK  113  A    between atoms: _324  and  _326
REMARK  114  A    between atoms: _326  and  _327
REMARK  115  A    between atoms: _326  and  _329
REMARK  116  A    between atoms: _329  and  _330
REMARK  117  A    between atoms: _333  and  _335
REMARK  118  A    between atoms: _335  and  _336
REMARK  119  A    between atoms: _335  and  _338
REMARK  120  A    between atoms: _338  and  _339
REMARK  121  A    between atoms: _343  and  _344
REMARK  122  A    between atoms: _350  and  _351
REMARK  123  A    between atoms: _356  and  _358
REMARK  124  A    between atoms: _358  and  _359
REMARK  125  A    between atoms: _358  and  _361
REMARK  126  A    between atoms: _361  and  _362
REMARK  127  A    between atoms: _365  and  _367
REMARK  128  A    between atoms: _367  and  _368
REMARK  129  A    between atoms: _367  and  _370
REMARK  130  A    between atoms: _370  and  _371
REMARK  131  A    between atoms: _374  and  _376
REMARK  132  A    between atoms: _376  and  _377
REMARK  133  A    between atoms: _376  and  _379
REMARK  134  A    between atoms: _382  and  _384
REMARK  135  A    between atoms: _384  and  _385
REMARK  136  A    between atoms: _384  and  _387
REMARK  137  A    between atoms: _387  and  _388
REMARK  138  A    between atoms: _398  and  _400
REMARK  139  A    between atoms: _400  and  _401
REMARK  140  A    between atoms: _400  and  _403
REMARK  141  A    between atoms: _403  and  _404
REMARK  142  A    between atoms: _409  and  _411
REMARK  143  A    between atoms: _411  and  _412
REMARK  144  A    between atoms: _411  and  _414
REMARK  145  A    between atoms: _414  and  _415
REMARK  146  A    between atoms: _415  and  _416
REMARK  147  A    between atoms: _416  and  _417
REMARK                            x       y       z     vdW  Elec       q    Type
REMARK                         _______ _______ _______ _____ _____    ______ ____
ROOT
ATOM      1  CA  VAL A   1      -7.275   5.588  24.160  0.00  0.00    +0.133 C 
ENDROOT
BRANCH   1   2
ATOM      2  CB  VAL A   1      -6.993   4.378  23.241  0.00  0.00    +0.023 C 
ATOM      3  CG2 VAL A   1      -8.329   3.628  22.959  0.00  0.00    +0.002 C 
ATOM      4  CG1 VAL A   1      -6.211   4.712  22.041  0.00  0.00    +0.002 C 
ENDBRANCH   1   2
BRANCH   1   5
ATOM      5  N   VAL A   1      -6.031   6.338  24.301  0.00  0.00    -0.239 NA
ATOM      6  H   VAL A   1      -5.132   5.825  24.403  0.00  0.00    +0.142 HD
ENDBRANCH   1   5
BRANCH   1   7
ATOM      7  C   VAL A   1      -7.991   5.087  25.431  0.00  0.00    +0.224 C 
ATOM      8  O   VAL A   1      -7.443   4.378  26.279  0.00  0.00    -0.287 OA
ENDBRANCH   1   7
TORSDOF 3
REMARK  Name = ../refined-set-2016/1ydd/1ydd_pocket.pdb
REMARK  147 active torsions:
REMARK  status: ('A' for Active; 'I' for Inactive)
REMARK    1  A    between atoms: _1  and  _3
REMARK    2  A    between atoms: _3  and  _4
REMARK    3  A    between atoms: _3  and  _6
REMARK    4  A    between atoms: _6  and  _7
REMARK    5  A    between atoms: _17  and  _19
REMARK    6  A    between atoms: _19  and  _20
REMARK    7  A    between atoms: _19  and  _22
REMARK    8  A    between atoms: _22  and  _23
REMARK    9  A    between atoms: _28  and  _29
REMARK   10  A    between atoms: _31  and  _33
REMARK   11  A    between atoms: _33  and  _34
REMARK   12  A    between atoms: _33  and  _36
REMARK   13  A    between atoms: _36  and  _37
REMARK   14  A    between atoms: _40  and  _41
REMARK   15  A    between atoms: _46  and  _48
REMARK   16  A    between atoms: _48  and  _49
REMARK   17  A    between atoms: _48  and  _51
REMARK   18  A    between atoms: _51  and  _52
REMARK   19  A    between atoms: _57  and  _59
REMARK   20  A    between atoms: _59  and  _60
REMARK   21  A    between atoms: _59  and  _62
REMARK   22  A    between atoms: _62  and  _63
REMARK   23  A    between atoms: _68  and  _70
REMARK   24  A    between atoms: _70  and  _71
REMARK   25  A    between atoms: _74  and  _76
REMARK   26  A    between atoms: _76  and  _77
REMARK   27  A    between atoms: _76  and  _79
REMARK   28  A    between atoms: _79  and  _80
REMARK   29  A    between atoms: _85  and  _87
REMARK   30  A    between atoms: _87  and  _88
REMARK   31  A    between atoms: _87  and  _90
REMARK   32  A    between atoms: _90  and  _91
REMARK   33  A    between atoms: _94  and  _96
REMARK   34  A    between atoms: _96  and  _97
REMARK   35  A    between atoms: _96  and  _99
REMARK   36  A    between atoms: _99  and  _100
REMARK   37  A    between atoms: _100  and  _101
REMARK   38  A    between atoms: _106  and  _108
REMARK   39  A    between atoms: _108  and  _109
REMARK   40  A    between atoms: _108  and  _111
REMARK   41  A    between atoms: _111  and  _112
REMARK   42  A    between atoms: _118  and  _120
REMARK   43  A    between atoms: _131  and  _134
REMARK   44  A    between atoms: _134  and  _135
REMARK   45  A    between atoms: _143  and  _144
REMARK   46  A    between atoms: _152  and  _154
REMARK   47  A    between atoms: _154  and  _155
REMARK   48  A    between atoms: _154  and  _157
REMARK   49  A    between atoms: _157  and  _158
REMARK   50  A    between atoms: _158  and  _159
REMARK   51  A    between atoms: _162  and  _164
REMARK   52  A    between atoms: _164  and  _165
REMARK   53  A    between atoms: _164  and  _167
REMARK   54  A    between atoms: _167  and  _168
REMARK   55  A    between atoms: _173  and  _175
REMARK   56  A    between atoms: _175  and  _176
REMARK   57  A    between atoms: _175  and  _178
REMARK   58  A    between atoms: _179  and  _180
REMARK   59  A    between atoms: _183  and  _185
REMARK   60  A    between atoms: _185  and  _186
REMARK   61  A    between atoms: _185  and  _188
REMARK   62  A    between atoms: _188  and  _189
REMARK   63  A    between atoms: _192  and  _194
REMARK   64  A    between atoms: _194  and  _195
REMARK   65  A    between atoms: _194  and  _197
REMARK   66  A    between atoms: _197  and  _198
REMARK   67  A    between atoms: _199  and  ZN_426
REMARK   68  A    between atoms: _203  and  _205
REMARK   69  A    between atoms: _205  and  _206
REMARK   70  A    between atoms: _205  and  _208
REMARK   71  A    between atoms: _208  and  _209
REMARK   72  A    between atoms: _212  and  _214
REMARK   73  A    between atoms: _214  and  _215
REMARK   74  A    between atoms: _214  and  _217
REMARK   75  A    between atoms: _220  and  _222
REMARK   76  A    between atoms: _222  and  _223
REMARK   77  A    between atoms: _222  and  _225
REMARK   78  A    between atoms: _225  and  _226
REMARK   79  A    between atoms: _231  and  _233
REMARK   80  A    between atoms: _233  and  _234
REMARK   81  A    between atoms: _233  and  _236
REMARK   82  A    between atoms: _236  and  _237
REMARK   83  A    between atoms: _247  and  _249
REMARK   84  A    between atoms: _249  and  _250
REMARK   85  A    between atoms: _249  and  _252
REMARK   86  A    between atoms: _252  and  _253
REMARK   87  A    between atoms: _259  and  _261
REMARK   88  A    between atoms: _261  and  _262
REMARK   89  A    between atoms: _261  and  _264
REMARK   90  A    between atoms: _267  and  _269
REMARK   91  A    between atoms: _269  and  _270
REMARK   92  A    between atoms: _269  and  _272
REMARK   93  A    between atoms: _272  and  _273
REMARK   94  A    between atoms: _276  and  _278
REMARK   95  A    between atoms: _278  and  _279
REMARK   96  A    between atoms: _282  and  _284
REMARK   97  A    between atoms: _284  and  _285
REMARK   98  A    between atoms: _284  and  _287
REMARK   99  A    between atoms: _290  and  _292
REMARK  100  A    between atoms: _292  and  _293
REMARK  101  A    between atoms: _292  and  _295
REMARK  102  A    between atoms: _295  and  _296
REMARK  103  A    between atoms: _299  and  _301
REMARK  104  A    between atoms: _301  and  _302
REMARK  105  A    between atoms: _301  and  _304
REMARK  106  A    between atoms: _304  and  _305
REMARK  107  A    between atoms: _307  and  _309
REMARK  108  A    between atoms: _309  and  _310
REMARK  109  A    between atoms: _309  and  _312
REMARK  110  A    between atoms: _312  and  _313
REMARK  111  A    between atoms: _313  and  _314
REMARK  112  A    between atoms: _314  and  _315
REMARK  113  A    between atoms: _324  and  _326
REMARK  114  A    between atoms: _326  and  _327
REMARK  115  A    between atoms: _326  and  _329
REMARK  116  A    between atoms: _329  and  _330
REMARK  117  A    between atoms: _333  and  _335
REMARK  118  A    between atoms: _335  and  _336
REMARK  119  A    between atoms: _335  and  _338
REMARK  120  A    between atoms: _338  and  _339
REMARK  121  A    between atoms: _343  and  _344
REMARK  122  A    between atoms: _350  and  _351
REMARK  123  A    between atoms: _356  and  _358
REMARK  124  A    between atoms: _358  and  _359
REMARK  125  A    between atoms: _358  and  _361
REMARK  126  A    between atoms: _361  and  _362
REMARK  127  A    between atoms: _365  and  _367
REMARK  128  A    between atoms: _367  and  _368
REMARK  129  A    between atoms: _367  and  _370
REMARK  130  A    between atoms: _370  and  _371
REMARK  131  A    between atoms: _374  and  _376
REMARK  132  A    between atoms: _376  and  _377
REMARK  133  A    between atoms: _376  and  _379
REMARK  134  A    between atoms: _382  and  _384
REMARK  135  A    between atoms: _384  and  _385
REMARK  136  A    between atoms: _384  and  _387
REMARK  137  A    between atoms: _387  and  _388
REMARK  138  A    between atoms: _398  and  _400
REMARK  139  A    between atoms: _400  and  _401
REMARK  140  A    between atoms: _400  and  _403
REMARK  141  A    between atoms: _403  and  _404
REMARK  142  A    between atoms: _409  and  _411
REMARK  143  A    between atoms: _411  and  _412
REMARK  144  A    between atoms: _411  and  _414
REMARK  145  A    between atoms: _414  and  _415
REMARK  146  A    between atoms: _415  and  _416
REMARK  147  A    between atoms: _416  and  _417
REMARK                            x       y       z     vdW  Elec       q    Type
REMARK                         _______ _______ _______ _____ _____    ______ ____
ROOT
ATOM      1  CG  TRP A   1      -8.764   0.167  24.301  0.00  0.00    -0.002 A 
ATOM      2  CD1 TRP A   1      -7.520   0.667  24.442  0.00  0.00    +0.068 A 
ATOM      3  NE1 TRP A   1      -6.798   0.584  23.312  0.00  0.00    -0.352 N 
ATOM      4  HE1 TRP A   1      -5.816   0.908  23.200  0.00  0.00    +0.166 HD
ATOM      5  CE2 TRP A   1      -7.565   0.000  22.323  0.00  0.00    +0.056 A 
ATOM      6  CZ2 TRP A   1      -7.259  -0.250  20.981  0.00  0.00    +0.017 A 
ATOM      7  CH2 TRP A   1      -8.270  -0.876  20.274  0.00  0.00    +0.001 A 
ATOM      8  CZ3 TRP A   1      -9.528  -1.168  20.840  0.00  0.00    +0.000 A 
ATOM      9  CE3 TRP A   1      -9.816  -0.876  22.111  0.00  0.00    +0.001 A 
ATOM     10  CD2 TRP A   1      -8.823  -0.292  22.888  0.00  0.00    +0.013 A 
ENDROOT
BRANCH   1  11
ATOM     11  CB  TRP A   1      -9.875   0.042  25.290  0.00  0.00    +0.053 C 
BRANCH  11  12
ATOM     12  CA  TRP A   1     -10.882   1.168  25.219  0.00  0.00    +0.137 C 
BRANCH  12  13
ATOM     13  N   TRP A   1     -10.468   2.377  25.926  0.00  0.00    -0.239 NA
ATOM     14  H   TRP A   1      -9.915   2.307  26.804  0.00  0.00    +0.142 HD
ENDBRANCH  12  13
BRANCH  12  15
ATOM     15  C   TRP A   1     -12.249   0.751  25.714  0.00  0.00    +0.224 C 
ATOM     16  O   TRP A   1     -12.562   0.792  26.915  0.00  0.00    -0.287 OA
ENDBRANCH  12  15
ENDBRANCH  11  12
ENDBRANCH   1  11
TORSDOF 4
REMARK  Name = ../refined-set-2016/1ydd/1ydd_pocket.pdb
REMARK  147 active torsions:
REMARK  status: ('A' for Active; 'I' for Inactive)
REMARK    1  A    between atoms: _1  and  _3
REMARK    2  A    between atoms: _3  and  _4
REMARK    3  A    between atoms: _3  and  _6
REMARK    4  A    between atoms: _6  and  _7
REMARK    5  A    between atoms: _17  and  _19
REMARK    6  A    between atoms: _19  and  _20
REMARK    7  A    between atoms: _19  and  _22
REMARK    8  A    between atoms: _22  and  _23
REMARK    9  A    between atoms: _28  and  _29
REMARK   10  A    between atoms: _31  and  _33
REMARK   11  A    between atoms: _33  and  _34
REMARK   12  A    between atoms: _33  and  _36
REMARK   13  A    between atoms: _36  and  _37
REMARK   14  A    between atoms: _40  and  _41
REMARK   15  A    between atoms: _46  and  _48
REMARK   16  A    between atoms: _48  and  _49
REMARK   17  A    between atoms: _48  and  _51
REMARK   18  A    between atoms: _51  and  _52
REMARK   19  A    between atoms: _57  and  _59
REMARK   20  A    between atoms: _59  and  _60
REMARK   21  A    between atoms: _59  and  _62
REMARK   22  A    between atoms: _62  and  _63
REMARK   23  A    between atoms: _68  and  _70
REMARK   24  A    between atoms: _70  and  _71
REMARK   25  A    between atoms: _74  and  _76
REMARK   26  A    between atoms: _76  and  _77
REMARK   27  A    between atoms: _76  and  _79
REMARK   28  A    between atoms: _79  and  _80
REMARK   29  A    between atoms: _85  and  _87
REMARK   30  A    between atoms: _87  and  _88
REMARK   31  A    between atoms: _87  and  _90
REMARK   32  A    between atoms: _90  and  _91
REMARK   33  A    between atoms: _94  and  _96
REMARK   34  A    between atoms: _96  and  _97
REMARK   35  A    between atoms: _96  and  _99
REMARK   36  A    between atoms: _99  and  _100
REMARK   37  A    between atoms: _100  and  _101
REMARK   38  A    between atoms: _106  and  _108
REMARK   39  A    between atoms: _108  and  _109
REMARK   40  A    between atoms: _108  and  _111
REMARK   41  A    between atoms: _111  and  _112
REMARK   42  A    between atoms: _118  and  _120
REMARK   43  A    between atoms: _131  and  _134
REMARK   44  A    between atoms: _134  and  _135
REMARK   45  A    between atoms: _143  and  _144
REMARK   46  A    between atoms: _152  and  _154
REMARK   47  A    between atoms: _154  and  _155
REMARK   48  A    between atoms: _154  and  _157
REMARK   49  A    between atoms: _157  and  _158
REMARK   50  A    between atoms: _158  and  _159
REMARK   51  A    between atoms: _162  and  _164
REMARK   52  A    between atoms: _164  and  _165
REMARK   53  A    between atoms: _164  and  _167
REMARK   54  A    between atoms: _167  and  _168
REMARK   55  A    between atoms: _173  and  _175
REMARK   56  A    between atoms: _175  and  _176
REMARK   57  A    between atoms: _175  and  _178
REMARK   58  A    between atoms: _179  and  _180
REMARK   59  A    between atoms: _183  and  _185
REMARK   60  A    between atoms: _185  and  _186
REMARK   61  A    between atoms: _185  and  _188
REMARK   62  A    between atoms: _188  and  _189
REMARK   63  A    between atoms: _192  and  _194
REMARK   64  A    between atoms: _194  and  _195
REMARK   65  A    between atoms: _194  and  _197
REMARK   66  A    between atoms: _197  and  _198
REMARK   67  A    between atoms: _199  and  ZN_426
REMARK   68  A    between atoms: _203  and  _205
REMARK   69  A    between atoms: _205  and  _206
REMARK   70  A    between atoms: _205  and  _208
REMARK   71  A    between atoms: _208  and  _209
REMARK   72  A    between atoms: _212  and  _214
REMARK   73  A    between atoms: _214  and  _215
REMARK   74  A    between atoms: _214  and  _217
REMARK   75  A    between atoms: _220  and  _222
REMARK   76  A    between atoms: _222  and  _223
REMARK   77  A    between atoms: _222  and  _225
REMARK   78  A    between atoms: _225  and  _226
REMARK   79  A    between atoms: _231  and  _233
REMARK   80  A    between atoms: _233  and  _234
REMARK   81  A    between atoms: _233  and  _236
REMARK   82  A    between atoms: _236  and  _237
REMARK   83  A    between atoms: _247  and  _249
REMARK   84  A    between atoms: _249  and  _250
REMARK   85  A    between atoms: _249  and  _252
REMARK   86  A    between atoms: _252  and  _253
REMARK   87  A    between atoms: _259  and  _261
REMARK   88  A    between atoms: _261  and  _262
REMARK   89  A    between atoms: _261  and  _264
REMARK   90  A    between atoms: _267  and  _269
REMARK   91  A    between atoms: _269  and  _270
REMARK   92  A    between atoms: _269  and  _272
REMARK   93  A    between atoms: _272  and  _273
REMARK   94  A    between atoms: _276  and  _278
REMARK   95  A    between atoms: _278  and  _279
REMARK   96  A    between atoms: _282  and  _284
REMARK   97  A    between atoms: _284  and  _285
REMARK   98  A    between atoms: _284  and  _287
REMARK   99  A    between atoms: _290  and  _292
REMARK  100  A    between atoms: _292  and  _293
REMARK  101  A    between atoms: _292  and  _295
REMARK  102  A    between atoms: _295  and  _296
REMARK  103  A    between atoms: _299  and  _301
REMARK  104  A    between atoms: _301  and  _302
REMARK  105  A    between atoms: _301  and  _304
REMARK  106  A    between atoms: _304  and  _305
REMARK  107  A    between atoms: _307  and  _309
REMARK  108  A    between atoms: _309  and  _310
REMARK  109  A    between atoms: _309  and  _312
REMARK  110  A    between atoms: _312  and  _313
REMARK  111  A    between atoms: _313  and  _314
REMARK  112  A    between atoms: _314  and  _315
REMARK  113  A    between atoms: _324  and  _326
REMARK  114  A    between atoms: _326  and  _327
REMARK  115  A    between atoms: _326  and  _329
REMARK  116  A    between atoms: _329  and  _330
REMARK  117  A    between atoms: _333  and  _335
REMARK  118  A    between atoms: _335  and  _336
REMARK  119  A    between atoms: _335  and  _338
REMARK  120  A    between atoms: _338  and  _339
REMARK  121  A    between atoms: _343  and  _344
REMARK  122  A    between atoms: _350  and  _351
REMARK  123  A    between atoms: _356  and  _358
REMARK  124  A    between atoms: _358  and  _359
REMARK  125  A    between atoms: _358  and  _361
REMARK  126  A    between atoms: _361  and  _362
REMARK  127  A    between atoms: _365  and  _367
REMARK  128  A    between atoms: _367  and  _368
REMARK  129  A    between atoms: _367  and  _370
REMARK  130  A    between atoms: _370  and  _371
REMARK  131  A    between atoms: _374  and  _376
REMARK  132  A    between atoms: _376  and  _377
REMARK  133  A    between atoms: _376  and  _379
REMARK  134  A    between atoms: _382  and  _384
REMARK  135  A    between atoms: _384  and  _385
REMARK  136  A    between atoms: _384  and  _387
REMARK  137  A    between atoms: _387  and  _388
REMARK  138  A    between atoms: _398  and  _400
REMARK  139  A    between atoms: _400  and  _401
REMARK  140  A    between atoms: _400  and  _403
REMARK  141  A    between atoms: _403  and  _404
REMARK  142  A    between atoms: _409  and  _411
REMARK  143  A    between atoms: _411  and  _412
REMARK  144  A    between atoms: _411  and  _414
REMARK  145  A    between atoms: _414  and  _415
REMARK  146  A    between atoms: _415  and  _416
REMARK  147  A    between atoms: _416  and  _417
REMARK                            x       y       z     vdW  Elec       q    Type
REMARK                         _______ _______ _______ _____ _____    ______ ____
ROOT
ATOM      1  CB  ASN A   1      -2.120  -7.339  10.596  0.00  0.00    +0.110 C 
ENDROOT
BRANCH   1   2
ATOM      2  CG  ASN A   1      -3.620  -7.464  10.455  0.00  0.00    +0.221 C 
ATOM      3  OD1 ASN A   1      -4.286  -8.382  10.879  0.00  0.00    -0.275 OA
ATOM      4  ND2 ASN A   1      -4.205  -6.464   9.749  0.00  0.00    -0.329 N 
ATOM      5 HD21 ASN A   1      -5.229  -6.484   9.570  0.00  0.00    +0.145 HD
ATOM      6 HD22 ASN A   1      -3.629  -5.677   9.387  0.00  0.00    +0.145 HD
ENDBRANCH   1   2
BRANCH   1   7
ATOM      7  CA  ASN A   1      -1.578  -8.132  11.797  0.00  0.00    +0.142 C 
BRANCH   7   8
ATOM      8  N   ASN A   1      -1.865  -9.549  11.585  0.00  0.00    -0.239 NA
ATOM      9  H   ASN A   1      -2.827  -9.842  11.318  0.00  0.00    +0.142 HD
ENDBRANCH   7   8
BRANCH   7  10
ATOM     10  C   ASN A   1      -2.099  -7.673  13.140  0.00  0.00    +0.225 C 
ATOM     11  O   ASN A   1      -2.733  -6.672  13.281  0.00  0.00    -0.287 OA
ENDBRANCH   7  10
ENDBRANCH   1   7
TORSDOF 4
REMARK  Name = ../refined-set-2016/1ydd/1ydd_pocket.pdb
REMARK  147 active torsions:
REMARK  status: ('A' for Active; 'I' for Inactive)
REMARK    1  A    between atoms: _1  and  _3
REMARK    2  A    between atoms: _3  and  _4
REMARK    3  A    between atoms: _3  and  _6
REMARK    4  A    between atoms: _6  and  _7
REMARK    5  A    between atoms: _17  and  _19
REMARK    6  A    between atoms: _19  and  _20
REMARK    7  A    between atoms: _19  and  _22
REMARK    8  A    between atoms: _22  and  _23
REMARK    9  A    between atoms: _28  and  _29
REMARK   10  A    between atoms: _31  and  _33
REMARK   11  A    between atoms: _33  and  _34
REMARK   12  A    between atoms: _33  and  _36
REMARK   13  A    between atoms: _36  and  _37
REMARK   14  A    between atoms: _40  and  _41
REMARK   15  A    between atoms: _46  and  _48
REMARK   16  A    between atoms: _48  and  _49
REMARK   17  A    between atoms: _48  and  _51
REMARK   18  A    between atoms: _51  and  _52
REMARK   19  A    between atoms: _57  and  _59
REMARK   20  A    between atoms: _59  and  _60
REMARK   21  A    between atoms: _59  and  _62
REMARK   22  A    between atoms: _62  and  _63
REMARK   23  A    between atoms: _68  and  _70
REMARK   24  A    between atoms: _70  and  _71
REMARK   25  A    between atoms: _74  and  _76
REMARK   26  A    between atoms: _76  and  _77
REMARK   27  A    between atoms: _76  and  _79
REMARK   28  A    between atoms: _79  and  _80
REMARK   29  A    between atoms: _85  and  _87
REMARK   30  A    between atoms: _87  and  _88
REMARK   31  A    between atoms: _87  and  _90
REMARK   32  A    between atoms: _90  and  _91
REMARK   33  A    between atoms: _94  and  _96
REMARK   34  A    between atoms: _96  and  _97
REMARK   35  A    between atoms: _96  and  _99
REMARK   36  A    between atoms: _99  and  _100
REMARK   37  A    between atoms: _100  and  _101
REMARK   38  A    between atoms: _106  and  _108
REMARK   39  A    between atoms: _108  and  _109
REMARK   40  A    between atoms: _108  and  _111
REMARK   41  A    between atoms: _111  and  _112
REMARK   42  A    between atoms: _118  and  _120
REMARK   43  A    between atoms: _131  and  _134
REMARK   44  A    between atoms: _134  and  _135
REMARK   45  A    between atoms: _143  and  _144
REMARK   46  A    between atoms: _152  and  _154
REMARK   47  A    between atoms: _154  and  _155
REMARK   48  A    between atoms: _154  and  _157
REMARK   49  A    between atoms: _157  and  _158
REMARK   50  A    between atoms: _158  and  _159
REMARK   51  A    between atoms: _162  and  _164
REMARK   52  A    between atoms: _164  and  _165
REMARK   53  A    between atoms: _164  and  _167
REMARK   54  A    between atoms: _167  and  _168
REMARK   55  A    between atoms: _173  and  _175
REMARK   56  A    between atoms: _175  and  _176
REMARK   57  A    between atoms: _175  and  _178
REMARK   58  A    between atoms: _179  and  _180
REMARK   59  A    between atoms: _183  and  _185
REMARK   60  A    between atoms: _185  and  _186
REMARK   61  A    between atoms: _185  and  _188
REMARK   62  A    between atoms: _188  and  _189
REMARK   63  A    between atoms: _192  and  _194
REMARK   64  A    between atoms: _194  and  _195
REMARK   65  A    between atoms: _194  and  _197
REMARK   66  A    between atoms: _197  and  _198
REMARK   67  A    between atoms: _199  and  ZN_426
REMARK   68  A    between atoms: _203  and  _205
REMARK   69  A    between atoms: _205  and  _206
REMARK   70  A    between atoms: _205  and  _208
REMARK   71  A    between atoms: _208  and  _209
REMARK   72  A    between atoms: _212  and  _214
REMARK   73  A    between atoms: _214  and  _215
REMARK   74  A    between atoms: _214  and  _217
REMARK   75  A    between atoms: _220  and  _222
REMARK   76  A    between atoms: _222  and  _223
REMARK   77  A    between atoms: _222  and  _225
REMARK   78  A    between atoms: _225  and  _226
REMARK   79  A    between atoms: _231  and  _233
REMARK   80  A    between atoms: _233  and  _234
REMARK   81  A    between atoms: _233  and  _236
REMARK   82  A    between atoms: _236  and  _237
REMARK   83  A    between atoms: _247  and  _249
REMARK   84  A    between atoms: _249  and  _250
REMARK   85  A    between atoms: _249  and  _252
REMARK   86  A    between atoms: _252  and  _253
REMARK   87  A    between atoms: _259  and  _261
REMARK   88  A    between atoms: _261  and  _262
REMARK   89  A    between atoms: _261  and  _264
REMARK   90  A    between atoms: _267  and  _269
REMARK   91  A    between atoms: _269  and  _270
REMARK   92  A    between atoms: _269  and  _272
REMARK   93  A    between atoms: _272  and  _273
REMARK   94  A    between atoms: _276  and  _278
REMARK   95  A    between atoms: _278  and  _279
REMARK   96  A    between atoms: _282  and  _284
REMARK   97  A    between atoms: _284  and  _285
REMARK   98  A    between atoms: _284  and  _287
REMARK   99  A    between atoms: _290  and  _292
REMARK  100  A    between atoms: _292  and  _293
REMARK  101  A    between atoms: _292  and  _295
REMARK  102  A    between atoms: _295  and  _296
REMARK  103  A    between atoms: _299  and  _301
REMARK  104  A    between atoms: _301  and  _302
REMARK  105  A    between atoms: _301  and  _304
REMARK  106  A    between atoms: _304  and  _305
REMARK  107  A    between atoms: _307  and  _309
REMARK  108  A    between atoms: _309  and  _310
REMARK  109  A    between atoms: _309  and  _312
REMARK  110  A    between atoms: _312  and  _313
REMARK  111  A    between atoms: _313  and  _314
REMARK  112  A    between atoms: _314  and  _315
REMARK  113  A    between atoms: _324  and  _326
REMARK  114  A    between atoms: _326  and  _327
REMARK  115  A    between atoms: _326  and  _329
REMARK  116  A    between atoms: _329  and  _330
REMARK  117  A    between atoms: _333  and  _335
REMARK  118  A    between atoms: _335  and  _336
REMARK  119  A    between atoms: _335  and  _338
REMARK  120  A    between atoms: _338  and  _339
REMARK  121  A    between atoms: _343  and  _344
REMARK  122  A    between atoms: _350  and  _351
REMARK  123  A    between atoms: _356  and  _358
REMARK  124  A    between atoms: _358  and  _359
REMARK  125  A    between atoms: _358  and  _361
REMARK  126  A    between atoms: _361  and  _362
REMARK  127  A    between atoms: _365  and  _367
REMARK  128  A    between atoms: _367  and  _368
REMARK  129  A    between atoms: _367  and  _370
REMARK  130  A    between atoms: _370  and  _371
REMARK  131  A    between atoms: _374  and  _376
REMARK  132  A    between atoms: _376  and  _377
REMARK  133  A    between atoms: _376  and  _379
REMARK  134  A    between atoms: _382  and  _384
REMARK  135  A    between atoms: _384  and  _385
REMARK  136  A    between atoms: _384  and  _387
REMARK  137  A    between atoms: _387  and  _388
REMARK  138  A    between atoms: _398  and  _400
REMARK  139  A    between atoms: _400  and  _401
REMARK  140  A    between atoms: _400  and  _403
REMARK  141  A    between atoms: _403  and  _404
REMARK  142  A    between atoms: _409  and  _411
REMARK  143  A    between atoms: _411  and  _412
REMARK  144  A    between atoms: _411  and  _414
REMARK  145  A    between atoms: _414  and  _415
REMARK  146  A    between atoms: _415  and  _416
REMARK  147  A    between atoms: _416  and  _417
REMARK                            x       y       z     vdW  Elec       q    Type
REMARK                         _______ _______ _______ _____ _____    ______ ____
ROOT
ATOM      1  NE  ARG A   1       2.257  -3.753  21.334  0.00  0.00    -0.265 N 
ATOM      2  CZ  ARG A   1       2.353  -2.669  22.111  0.00  0.00    +0.342 C 
ATOM      3  NH2 ARG A   1       3.524  -2.252  22.535  0.00  0.00    -0.292 N 
ATOM      4 HH21 ARG A   1       3.588  -1.408  23.139  0.00  0.00    +0.255 HD
ATOM      5 HH22 ARG A   1       4.387  -2.766  22.267  0.00  0.00    +0.255 HD
ATOM      6  NH1 ARG A   1       1.255  -1.960  22.394  0.00  0.00    -0.292 N 
ATOM      7 HH11 ARG A   1       1.322  -1.116  22.998  0.00  0.00    +0.255 HD
ATOM      8 HH12 ARG A   1       0.334  -2.253  22.010  0.00  0.00    +0.255 HD
ATOM      9  HE  ARG A   1       3.075  -4.392  21.275  0.00  0.00    +0.259 HD
ENDROOT
BRANCH   1  10
ATOM     10  CD  ARG A   1       1.050  -4.087  20.557  0.00  0.00    +0.174 C 
BRANCH  10  11
ATOM     11  CG  ARG A   1       1.155  -5.463  19.992  0.00  0.00    +0.045 C 
BRANCH  11  12
ATOM     12  CB  ARG A   1       0.022  -5.713  18.932  0.00  0.00    +0.029 C 
BRANCH  12  13
ATOM     13  CA  ARG A   1      -0.142  -7.214  18.579  0.00  0.00    +0.133 C 
BRANCH  13  14
ATOM     14  N   ARG A   1      -1.147  -7.423  17.519  0.00  0.00    -0.239 NA
ATOM     15  H   ARG A   1      -2.074  -6.961  17.611  0.00  0.00    +0.142 HD
ENDBRANCH  13  14
BRANCH  13  16
ATOM     16  C   ARG A   1      -0.541  -8.048  19.780  0.00  0.00    +0.224 C 
ATOM     17  O   ARG A   1      -1.694  -8.048  20.274  0.00  0.00    -0.287 OA
ENDBRANCH  13  16
ENDBRANCH  12  13
ENDBRANCH  11  12
ENDBRANCH  10  11
ENDBRANCH   1  10
TORSDOF 6
REMARK  Name = ../refined-set-2016/1ydd/1ydd_pocket.pdb
REMARK  147 active torsions:
REMARK  status: ('A' for Active; 'I' for Inactive)
REMARK    1  A    between atoms: _1  and  _3
REMARK    2  A    between atoms: _3  and  _4
REMARK    3  A    between atoms: _3  and  _6
REMARK    4  A    between atoms: _6  and  _7
REMARK    5  A    between atoms: _17  and  _19
REMARK    6  A    between atoms: _19  and  _20
REMARK    7  A    between atoms: _19  and  _22
REMARK    8  A    between atoms: _22  and  _23
REMARK    9  A    between atoms: _28  and  _29
REMARK   10  A    between atoms: _31  and  _33
REMARK   11  A    between atoms: _33  and  _34
REMARK   12  A    between atoms: _33  and  _36
REMARK   13  A    between atoms: _36  and  _37
REMARK   14  A    between atoms: _40  and  _41
REMARK   15  A    between atoms: _46  and  _48
REMARK   16  A    between atoms: _48  and  _49
REMARK   17  A    between atoms: _48  and  _51
REMARK   18  A    between atoms: _51  and  _52
REMARK   19  A    between atoms: _57  and  _59
REMARK   20  A    between atoms: _59  and  _60
REMARK   21  A    between atoms: _59  and  _62
REMARK   22  A    between atoms: _62  and  _63
REMARK   23  A    between atoms: _68  and  _70
REMARK   24  A    between atoms: _70  and  _71
REMARK   25  A    between atoms: _74  and  _76
REMARK   26  A    between atoms: _76  and  _77
REMARK   27  A    between atoms: _76  and  _79
REMARK   28  A    between atoms: _79  and  _80
REMARK   29  A    between atoms: _85  and  _87
REMARK   30  A    between atoms: _87  and  _88
REMARK   31  A    between atoms: _87  and  _90
REMARK   32  A    between atoms: _90  and  _91
REMARK   33  A    between atoms: _94  and  _96
REMARK   34  A    between atoms: _96  and  _97
REMARK   35  A    between atoms: _96  and  _99
REMARK   36  A    between atoms: _99  and  _100
REMARK   37  A    between atoms: _100  and  _101
REMARK   38  A    between atoms: _106  and  _108
REMARK   39  A    between atoms: _108  and  _109
REMARK   40  A    between atoms: _108  and  _111
REMARK   41  A    between atoms: _111  and  _112
REMARK   42  A    between atoms: _118  and  _120
REMARK   43  A    between atoms: _131  and  _134
REMARK   44  A    between atoms: _134  and  _135
REMARK   45  A    between atoms: _143  and  _144
REMARK   46  A    between atoms: _152  and  _154
REMARK   47  A    between atoms: _154  and  _155
REMARK   48  A    between atoms: _154  and  _157
REMARK   49  A    between atoms: _157  and  _158
REMARK   50  A    between atoms: _158  and  _159
REMARK   51  A    between atoms: _162  and  _164
REMARK   52  A    between atoms: _164  and  _165
REMARK   53  A    between atoms: _164  and  _167
REMARK   54  A    between atoms: _167  and  _168
REMARK   55  A    between atoms: _173  and  _175
REMARK   56  A    between atoms: _175  and  _176
REMARK   57  A    between atoms: _175  and  _178
REMARK   58  A    between atoms: _179  and  _180
REMARK   59  A    between atoms: _183  and  _185
REMARK   60  A    between atoms: _185  and  _186
REMARK   61  A    between atoms: _185  and  _188
REMARK   62  A    between atoms: _188  and  _189
REMARK   63  A    between atoms: _192  and  _194
REMARK   64  A    between atoms: _194  and  _195
REMARK   65  A    between atoms: _194  and  _197
REMARK   66  A    between atoms: _197  and  _198
REMARK   67  A    between atoms: _199  and  ZN_426
REMARK   68  A    between atoms: _203  and  _205
REMARK   69  A    between atoms: _205  and  _206
REMARK   70  A    between atoms: _205  and  _208
REMARK   71  A    between atoms: _208  and  _209
REMARK   72  A    between atoms: _212  and  _214
REMARK   73  A    between atoms: _214  and  _215
REMARK   74  A    between atoms: _214  and  _217
REMARK   75  A    between atoms: _220  and  _222
REMARK   76  A    between atoms: _222  and  _223
REMARK   77  A    between atoms: _222  and  _225
REMARK   78  A    between atoms: _225  and  _226
REMARK   79  A    between atoms: _231  and  _233
REMARK   80  A    between atoms: _233  and  _234
REMARK   81  A    between atoms: _233  and  _236
REMARK   82  A    between atoms: _236  and  _237
REMARK   83  A    between atoms: _247  and  _249
REMARK   84  A    between atoms: _249  and  _250
REMARK   85  A    between atoms: _249  and  _252
REMARK   86  A    between atoms: _252  and  _253
REMARK   87  A    between atoms: _259  and  _261
REMARK   88  A    between atoms: _261  and  _262
REMARK   89  A    between atoms: _261  and  _264
REMARK   90  A    between atoms: _267  and  _269
REMARK   91  A    between atoms: _269  and  _270
REMARK   92  A    between atoms: _269  and  _272
REMARK   93  A    between atoms: _272  and  _273
REMARK   94  A    between atoms: _276  and  _278
REMARK   95  A    between atoms: _278  and  _279
REMARK   96  A    between atoms: _282  and  _284
REMARK   97  A    between atoms: _284  and  _285
REMARK   98  A    between atoms: _284  and  _287
REMARK   99  A    between atoms: _290  and  _292
REMARK  100  A    between atoms: _292  and  _293
REMARK  101  A    between atoms: _292  and  _295
REMARK  102  A    between atoms: _295  and  _296
REMARK  103  A    between atoms: _299  and  _301
REMARK  104  A    between atoms: _301  and  _302
REMARK  105  A    between atoms: _301  and  _304
REMARK  106  A    between atoms: _304  and  _305
REMARK  107  A    between atoms: _307  and  _309
REMARK  108  A    between atoms: _309  and  _310
REMARK  109  A    between atoms: _309  and  _312
REMARK  110  A    between atoms: _312  and  _313
REMARK  111  A    between atoms: _313  and  _314
REMARK  112  A    between atoms: _314  and  _315
REMARK  113  A    between atoms: _324  and  _326
REMARK  114  A    between atoms: _326  and  _327
REMARK  115  A    between atoms: _326  and  _329
REMARK  116  A    between atoms: _329  and  _330
REMARK  117  A    between atoms: _333  and  _335
REMARK  118  A    between atoms: _335  and  _336
REMARK  119  A    between atoms: _335  and  _338
REMARK  120  A    between atoms: _338  and  _339
REMARK  121  A    between atoms: _343  and  _344
REMARK  122  A    between atoms: _350  and  _351
REMARK  123  A    between atoms: _356  and  _358
REMARK  124  A    between atoms: _358  and  _359
REMARK  125  A    between atoms: _358  and  _361
REMARK  126  A    between atoms: _361  and  _362
REMARK  127  A    between atoms: _365  and  _367
REMARK  128  A    between atoms: _367  and  _368
REMARK  129  A    between atoms: _367  and  _370
REMARK  130  A    between atoms: _370  and  _371
REMARK  131  A    between atoms: _374  and  _376
REMARK  132  A    between atoms: _376  and  _377
REMARK  133  A    between atoms: _376  and  _379
REMARK  134  A    between atoms: _382  and  _384
REMARK  135  A    between atoms: _384  and  _385
REMARK  136  A    between atoms: _384  and  _387
REMARK  137  A    between atoms: _387  and  _388
REMARK  138  A    between atoms: _398  and  _400
REMARK  139  A    between atoms: _400  and  _401
REMARK  140  A    between atoms: _400  and  _403
REMARK  141  A    between atoms: _403  and  _404
REMARK  142  A    between atoms: _409  and  _411
REMARK  143  A    between atoms: _411  and  _412
REMARK  144  A    between atoms: _411  and  _414
REMARK  145  A    between atoms: _414  and  _415
REMARK  146  A    between atoms: _415  and  _416
REMARK  147  A    between atoms: _416  and  _417
REMARK                            x       y       z     vdW  Elec       q    Type
REMARK                         _______ _______ _______ _____ _____    ______ ____
ROOT
ATOM      1  O   HOH     1      -7.134   6.380   6.570  0.00  0.00    +0.000 OA
ENDROOT
TORSDOF 0
REMARK  Name = ../refined-set-2016/1ydd/1ydd_pocket.pdb
REMARK  147 active torsions:
REMARK  status: ('A' for Active; 'I' for Inactive)
REMARK    1  A    between atoms: _1  and  _3
REMARK    2  A    between atoms: _3  and  _4
REMARK    3  A    between atoms: _3  and  _6
REMARK    4  A    between atoms: _6  and  _7
REMARK    5  A    between atoms: _17  and  _19
REMARK    6  A    between atoms: _19  and  _20
REMARK    7  A    between atoms: _19  and  _22
REMARK    8  A    between atoms: _22  and  _23
REMARK    9  A    between atoms: _28  and  _29
REMARK   10  A    between atoms: _31  and  _33
REMARK   11  A    between atoms: _33  and  _34
REMARK   12  A    between atoms: _33  and  _36
REMARK   13  A    between atoms: _36  and  _37
REMARK   14  A    between atoms: _40  and  _41
REMARK   15  A    between atoms: _46  and  _48
REMARK   16  A    between atoms: _48  and  _49
REMARK   17  A    between atoms: _48  and  _51
REMARK   18  A    between atoms: _51  and  _52
REMARK   19  A    between atoms: _57  and  _59
REMARK   20  A    between atoms: _59  and  _60
REMARK   21  A    between atoms: _59  and  _62
REMARK   22  A    between atoms: _62  and  _63
REMARK   23  A    between atoms: _68  and  _70
REMARK   24  A    between atoms: _70  and  _71
REMARK   25  A    between atoms: _74  and  _76
REMARK   26  A    between atoms: _76  and  _77
REMARK   27  A    between atoms: _76  and  _79
REMARK   28  A    between atoms: _79  and  _80
REMARK   29  A    between atoms: _85  and  _87
REMARK   30  A    between atoms: _87  and  _88
REMARK   31  A    between atoms: _87  and  _90
REMARK   32  A    between atoms: _90  and  _91
REMARK   33  A    between atoms: _94  and  _96
REMARK   34  A    between atoms: _96  and  _97
REMARK   35  A    between atoms: _96  and  _99
REMARK   36  A    between atoms: _99  and  _100
REMARK   37  A    between atoms: _100  and  _101
REMARK   38  A    between atoms: _106  and  _108
REMARK   39  A    between atoms: _108  and  _109
REMARK   40  A    between atoms: _108  and  _111
REMARK   41  A    between atoms: _111  and  _112
REMARK   42  A    between atoms: _118  and  _120
REMARK   43  A    between atoms: _131  and  _134
REMARK   44  A    between atoms: _134  and  _135
REMARK   45  A    between atoms: _143  and  _144
REMARK   46  A    between atoms: _152  and  _154
REMARK   47  A    between atoms: _154  and  _155
REMARK   48  A    between atoms: _154  and  _157
REMARK   49  A    between atoms: _157  and  _158
REMARK   50  A    between atoms: _158  and  _159
REMARK   51  A    between atoms: _162  and  _164
REMARK   52  A    between atoms: _164  and  _165
REMARK   53  A    between atoms: _164  and  _167
REMARK   54  A    between atoms: _167  and  _168
REMARK   55  A    between atoms: _173  and  _175
REMARK   56  A    between atoms: _175  and  _176
REMARK   57  A    between atoms: _175  and  _178
REMARK   58  A    between atoms: _179  and  _180
REMARK   59  A    between atoms: _183  and  _185
REMARK   60  A    between atoms: _185  and  _186
REMARK   61  A    between atoms: _185  and  _188
REMARK   62  A    between atoms: _188  and  _189
REMARK   63  A    between atoms: _192  and  _194
REMARK   64  A    between atoms: _194  and  _195
REMARK   65  A    between atoms: _194  and  _197
REMARK   66  A    between atoms: _197  and  _198
REMARK   67  A    between atoms: _199  and  ZN_426
REMARK   68  A    between atoms: _203  and  _205
REMARK   69  A    between atoms: _205  and  _206
REMARK   70  A    between atoms: _205  and  _208
REMARK   71  A    between atoms: _208  and  _209
REMARK   72  A    between atoms: _212  and  _214
REMARK   73  A    between atoms: _214  and  _215
REMARK   74  A    between atoms: _214  and  _217
REMARK   75  A    between atoms: _220  and  _222
REMARK   76  A    between atoms: _222  and  _223
REMARK   77  A    between atoms: _222  and  _225
REMARK   78  A    between atoms: _225  and  _226
REMARK   79  A    between atoms: _231  and  _233
REMARK   80  A    between atoms: _233  and  _234
REMARK   81  A    between atoms: _233  and  _236
REMARK   82  A    between atoms: _236  and  _237
REMARK   83  A    between atoms: _247  and  _249
REMARK   84  A    between atoms: _249  and  _250
REMARK   85  A    between atoms: _249  and  _252
REMARK   86  A    between atoms: _252  and  _253
REMARK   87  A    between atoms: _259  and  _261
REMARK   88  A    between atoms: _261  and  _262
REMARK   89  A    between atoms: _261  and  _264
REMARK   90  A    between atoms: _267  and  _269
REMARK   91  A    between atoms: _269  and  _270
REMARK   92  A    between atoms: _269  and  _272
REMARK   93  A    between atoms: _272  and  _273
REMARK   94  A    between atoms: _276  and  _278
REMARK   95  A    between atoms: _278  and  _279
REMARK   96  A    between atoms: _282  and  _284
REMARK   97  A    between atoms: _284  and  _285
REMARK   98  A    between atoms: _284  and  _287
REMARK   99  A    between atoms: _290  and  _292
REMARK  100  A    between atoms: _292  and  _293
REMARK  101  A    between atoms: _292  and  _295
REMARK  102  A    between atoms: _295  and  _296
REMARK  103  A    between atoms: _299  and  _301
REMARK  104  A    between atoms: _301  and  _302
REMARK  105  A    between atoms: _301  and  _304
REMARK  106  A    between atoms: _304  and  _305
REMARK  107  A    between atoms: _307  and  _309
REMARK  108  A    between atoms: _309  and  _310
REMARK  109  A    between atoms: _309  and  _312
REMARK  110  A    between atoms: _312  and  _313
REMARK  111  A    between atoms: _313  and  _314
REMARK  112  A    between atoms: _314  and  _315
REMARK  113  A    between atoms: _324  and  _326
REMARK  114  A    between atoms: _326  and  _327
REMARK  115  A    between atoms: _326  and  _329
REMARK  116  A    between atoms: _329  and  _330
REMARK  117  A    between atoms: _333  and  _335
REMARK  118  A    between atoms: _335  and  _336
REMARK  119  A    between atoms: _335  and  _338
REMARK  120  A    between atoms: _338  and  _339
REMARK  121  A    between atoms: _343  and  _344
REMARK  122  A    between atoms: _350  and  _351
REMARK  123  A    between atoms: _356  and  _358
REMARK  124  A    between atoms: _358  and  _359
REMARK  125  A    between atoms: _358  and  _361
REMARK  126  A    between atoms: _361  and  _362
REMARK  127  A    between atoms: _365  and  _367
REMARK  128  A    between atoms: _367  and  _368
REMARK  129  A    between atoms: _367  and  _370
REMARK  130  A    between atoms: _370  and  _371
REMARK  131  A    between atoms: _374  and  _376
REMARK  132  A    between atoms: _376  and  _377
REMARK  133  A    between atoms: _376  and  _379
REMARK  134  A    between atoms: _382  and  _384
REMARK  135  A    between atoms: _384  and  _385
REMARK  136  A    between atoms: _384  and  _387
REMARK  137  A    between atoms: _387  and  _388
REMARK  138  A    between atoms: _398  and  _400
REMARK  139  A    between atoms: _400  and  _401
REMARK  140  A    between atoms: _400  and  _403
REMARK  141  A    between atoms: _403  and  _404
REMARK  142  A    between atoms: _409  and  _411
REMARK  143  A    between atoms: _411  and  _412
REMARK  144  A    between atoms: _411  and  _414
REMARK  145  A    between atoms: _414  and  _415
REMARK  146  A    between atoms: _415  and  _416
REMARK  147  A    between atoms: _416  and  _417
REMARK                            x       y       z     vdW  Elec       q    Type
REMARK                         _______ _______ _______ _____ _____    ______ ____
ROOT
ATOM      1  O   HOH     1      -5.150   7.673   5.510  0.00  0.00    +0.000 OA
ENDROOT
TORSDOF 0
REMARK  Name = ../refined-set-2016/1ydd/1ydd_pocket.pdb
REMARK  147 active torsions:
REMARK  status: ('A' for Active; 'I' for Inactive)
REMARK    1  A    between atoms: _1  and  _3
REMARK    2  A    between atoms: _3  and  _4
REMARK    3  A    between atoms: _3  and  _6
REMARK    4  A    between atoms: _6  and  _7
REMARK    5  A    between atoms: _17  and  _19
REMARK    6  A    between atoms: _19  and  _20
REMARK    7  A    between atoms: _19  and  _22
REMARK    8  A    between atoms: _22  and  _23
REMARK    9  A    between atoms: _28  and  _29
REMARK   10  A    between atoms: _31  and  _33
REMARK   11  A    between atoms: _33  and  _34
REMARK   12  A    between atoms: _33  and  _36
REMARK   13  A    between atoms: _36  and  _37
REMARK   14  A    between atoms: _40  and  _41
REMARK   15  A    between atoms: _46  and  _48
REMARK   16  A    between atoms: _48  and  _49
REMARK   17  A    between atoms: _48  and  _51
REMARK   18  A    between atoms: _51  and  _52
REMARK   19  A    between atoms: _57  and  _59
REMARK   20  A    between atoms: _59  and  _60
REMARK   21  A    between atoms: _59  and  _62
REMARK   22  A    between atoms: _62  and  _63
REMARK   23  A    between atoms: _68  and  _70
REMARK   24  A    between atoms: _70  and  _71
REMARK   25  A    between atoms: _74  and  _76
REMARK   26  A    between atoms: _76  and  _77
REMARK   27  A    between atoms: _76  and  _79
REMARK   28  A    between atoms: _79  and  _80
REMARK   29  A    between atoms: _85  and  _87
REMARK   30  A    between atoms: _87  and  _88
REMARK   31  A    between atoms: _87  and  _90
REMARK   32  A    between atoms: _90  and  _91
REMARK   33  A    between atoms: _94  and  _96
REMARK   34  A    between atoms: _96  and  _97
REMARK   35  A    between atoms: _96  and  _99
REMARK   36  A    between atoms: _99  and  _100
REMARK   37  A    between atoms: _100  and  _101
REMARK   38  A    between atoms: _106  and  _108
REMARK   39  A    between atoms: _108  and  _109
REMARK   40  A    between atoms: _108  and  _111
REMARK   41  A    between atoms: _111  and  _112
REMARK   42  A    between atoms: _118  and  _120
REMARK   43  A    between atoms: _131  and  _134
REMARK   44  A    between atoms: _134  and  _135
REMARK   45  A    between atoms: _143  and  _144
REMARK   46  A    between atoms: _152  and  _154
REMARK   47  A    between atoms: _154  and  _155
REMARK   48  A    between atoms: _154  and  _157
REMARK   49  A    between atoms: _157  and  _158
REMARK   50  A    between atoms: _158  and  _159
REMARK   51  A    between atoms: _162  and  _164
REMARK   52  A    between atoms: _164  and  _165
REMARK   53  A    between atoms: _164  and  _167
REMARK   54  A    between atoms: _167  and  _168
REMARK   55  A    between atoms: _173  and  _175
REMARK   56  A    between atoms: _175  and  _176
REMARK   57  A    between atoms: _175  and  _178
REMARK   58  A    between atoms: _179  and  _180
REMARK   59  A    between atoms: _183  and  _185
REMARK   60  A    between atoms: _185  and  _186
REMARK   61  A    between atoms: _185  and  _188
REMARK   62  A    between atoms: _188  and  _189
REMARK   63  A    between atoms: _192  and  _194
REMARK   64  A    between atoms: _194  and  _195
REMARK   65  A    between atoms: _194  and  _197
REMARK   66  A    between atoms: _197  and  _198
REMARK   67  A    between atoms: _199  and  ZN_426
REMARK   68  A    between atoms: _203  and  _205
REMARK   69  A    between atoms: _205  and  _206
REMARK   70  A    between atoms: _205  and  _208
REMARK   71  A    between atoms: _208  and  _209
REMARK   72  A    between atoms: _212  and  _214
REMARK   73  A    between atoms: _214  and  _215
REMARK   74  A    between atoms: _214  and  _217
REMARK   75  A    between atoms: _220  and  _222
REMARK   76  A    between atoms: _222  and  _223
REMARK   77  A    between atoms: _222  and  _225
REMARK   78  A    between atoms: _225  and  _226
REMARK   79  A    between atoms: _231  and  _233
REMARK   80  A    between atoms: _233  and  _234
REMARK   81  A    between atoms: _233  and  _236
REMARK   82  A    between atoms: _236  and  _237
REMARK   83  A    between atoms: _247  and  _249
REMARK   84  A    between atoms: _249  and  _250
REMARK   85  A    between atoms: _249  and  _252
REMARK   86  A    between atoms: _252  and  _253
REMARK   87  A    between atoms: _259  and  _261
REMARK   88  A    between atoms: _261  and  _262
REMARK   89  A    between atoms: _261  and  _264
REMARK   90  A    between atoms: _267  and  _269
REMARK   91  A    between atoms: _269  and  _270
REMARK   92  A    between atoms: _269  and  _272
REMARK   93  A    between atoms: _272  and  _273
REMARK   94  A    between atoms: _276  and  _278
REMARK   95  A    between atoms: _278  and  _279
REMARK   96  A    between atoms: _282  and  _284
REMARK   97  A    between atoms: _284  and  _285
REMARK   98  A    between atoms: _284  and  _287
REMARK   99  A    between atoms: _290  and  _292
REMARK  100  A    between atoms: _292  and  _293
REMARK  101  A    between atoms: _292  and  _295
REMARK  102  A    between atoms: _295  and  _296
REMARK  103  A    between atoms: _299  and  _301
REMARK  104  A    between atoms: _301  and  _302
REMARK  105  A    between atoms: _301  and  _304
REMARK  106  A    between atoms: _304  and  _305
REMARK  107  A    between atoms: _307  and  _309
REMARK  108  A    between atoms: _309  and  _310
REMARK  109  A    between atoms: _309  and  _312
REMARK  110  A    between atoms: _312  and  _313
REMARK  111  A    between atoms: _313  and  _314
REMARK  112  A    between atoms: _314  and  _315
REMARK  113  A    between atoms: _324  and  _326
REMARK  114  A    between atoms: _326  and  _327
REMARK  115  A    between atoms: _326  and  _329
REMARK  116  A    between atoms: _329  and  _330
REMARK  117  A    between atoms: _333  and  _335
REMARK  118  A    between atoms: _335  and  _336
REMARK  119  A    between atoms: _335  and  _338
REMARK  120  A    between atoms: _338  and  _339
REMARK  121  A    between atoms: _343  and  _344
REMARK  122  A    between atoms: _350  and  _351
REMARK  123  A    between atoms: _356  and  _358
REMARK  124  A    between atoms: _358  and  _359
REMARK  125  A    between atoms: _358  and  _361
REMARK  126  A    between atoms: _361  and  _362
REMARK  127  A    between atoms: _365  and  _367
REMARK  128  A    between atoms: _367  and  _368
REMARK  129  A    between atoms: _367  and  _370
REMARK  130  A    between atoms: _370  and  _371
REMARK  131  A    between atoms: _374  and  _376
REMARK  132  A    between atoms: _376  and  _377
REMARK  133  A    between atoms: _376  and  _379
REMARK  134  A    between atoms: _382  and  _384
REMARK  135  A    between atoms: _384  and  _385
REMARK  136  A    between atoms: _384  and  _387
REMARK  137  A    between atoms: _387  and  _388
REMARK  138  A    between atoms: _398  and  _400
REMARK  139  A    between atoms: _400  and  _401
REMARK  140  A    between atoms: _400  and  _403
REMARK  141  A    between atoms: _403  and  _404
REMARK  142  A    between atoms: _409  and  _411
REMARK  143  A    between atoms: _411  and  _412
REMARK  144  A    between atoms: _411  and  _414
REMARK  145  A    between atoms: _414  and  _415
REMARK  146  A    between atoms: _415  and  _416
REMARK  147  A    between atoms: _416  and  _417
REMARK                            x       y       z     vdW  Elec       q    Type
REMARK                         _______ _______ _______ _____ _____    ______ ____
ROOT
ATOM      1  O   HOH     1      -2.451  -3.002  11.868  0.00  0.00    +0.000 OA
ENDROOT
TORSDOF 0
REMARK  Name = ../refined-set-2016/1ydd/1ydd_pocket.pdb
REMARK  147 active torsions:
REMARK  status: ('A' for Active; 'I' for Inactive)
REMARK    1  A    between atoms: _1  and  _3
REMARK    2  A    between atoms: _3  and  _4
REMARK    3  A    between atoms: _3  and  _6
REMARK    4  A    between atoms: _6  and  _7
REMARK    5  A    between atoms: _17  and  _19
REMARK    6  A    between atoms: _19  and  _20
REMARK    7  A    between atoms: _19  and  _22
REMARK    8  A    between atoms: _22  and  _23
REMARK    9  A    between atoms: _28  and  _29
REMARK   10  A    between atoms: _31  and  _33
REMARK   11  A    between atoms: _33  and  _34
REMARK   12  A    between atoms: _33  and  _36
REMARK   13  A    between atoms: _36  and  _37
REMARK   14  A    between atoms: _40  and  _41
REMARK   15  A    between atoms: _46  and  _48
REMARK   16  A    between atoms: _48  and  _49
REMARK   17  A    between atoms: _48  and  _51
REMARK   18  A    between atoms: _51  and  _52
REMARK   19  A    between atoms: _57  and  _59
REMARK   20  A    between atoms: _59  and  _60
REMARK   21  A    between atoms: _59  and  _62
REMARK   22  A    between atoms: _62  and  _63
REMARK   23  A    between atoms: _68  and  _70
REMARK   24  A    between atoms: _70  and  _71
REMARK   25  A    between atoms: _74  and  _76
REMARK   26  A    between atoms: _76  and  _77
REMARK   27  A    between atoms: _76  and  _79
REMARK   28  A    between atoms: _79  and  _80
REMARK   29  A    between atoms: _85  and  _87
REMARK   30  A    between atoms: _87  and  _88
REMARK   31  A    between atoms: _87  and  _90
REMARK   32  A    between atoms: _90  and  _91
REMARK   33  A    between atoms: _94  and  _96
REMARK   34  A    between atoms: _96  and  _97
REMARK   35  A    between atoms: _96  and  _99
REMARK   36  A    between atoms: _99  and  _100
REMARK   37  A    between atoms: _100  and  _101
REMARK   38  A    between atoms: _106  and  _108
REMARK   39  A    between atoms: _108  and  _109
REMARK   40  A    between atoms: _108  and  _111
REMARK   41  A    between atoms: _111  and  _112
REMARK   42  A    between atoms: _118  and  _120
REMARK   43  A    between atoms: _131  and  _134
REMARK   44  A    between atoms: _134  and  _135
REMARK   45  A    between atoms: _143  and  _144
REMARK   46  A    between atoms: _152  and  _154
REMARK   47  A    between atoms: _154  and  _155
REMARK   48  A    between atoms: _154  and  _157
REMARK   49  A    between atoms: _157  and  _158
REMARK   50  A    between atoms: _158  and  _159
REMARK   51  A    between atoms: _162  and  _164
REMARK   52  A    between atoms: _164  and  _165
REMARK   53  A    between atoms: _164  and  _167
REMARK   54  A    between atoms: _167  and  _168
REMARK   55  A    between atoms: _173  and  _175
REMARK   56  A    between atoms: _175  and  _176
REMARK   57  A    between atoms: _175  and  _178
REMARK   58  A    between atoms: _179  and  _180
REMARK   59  A    between atoms: _183  and  _185
REMARK   60  A    between atoms: _185  and  _186
REMARK   61  A    between atoms: _185  and  _188
REMARK   62  A    between atoms: _188  and  _189
REMARK   63  A    between atoms: _192  and  _194
REMARK   64  A    between atoms: _194  and  _195
REMARK   65  A    between atoms: _194  and  _197
REMARK   66  A    between atoms: _197  and  _198
REMARK   67  A    between atoms: _199  and  ZN_426
REMARK   68  A    between atoms: _203  and  _205
REMARK   69  A    between atoms: _205  and  _206
REMARK   70  A    between atoms: _205  and  _208
REMARK   71  A    between atoms: _208  and  _209
REMARK   72  A    between atoms: _212  and  _214
REMARK   73  A    between atoms: _214  and  _215
REMARK   74  A    between atoms: _214  and  _217
REMARK   75  A    between atoms: _220  and  _222
REMARK   76  A    between atoms: _222  and  _223
REMARK   77  A    between atoms: _222  and  _225
REMARK   78  A    between atoms: _225  and  _226
REMARK   79  A    between atoms: _231  and  _233
REMARK   80  A    between atoms: _233  and  _234
REMARK   81  A    between atoms: _233  and  _236
REMARK   82  A    between atoms: _236  and  _237
REMARK   83  A    between atoms: _247  and  _249
REMARK   84  A    between atoms: _249  and  _250
REMARK   85  A    between atoms: _249  and  _252
REMARK   86  A    between atoms: _252  and  _253
REMARK   87  A    between atoms: _259  and  _261
REMARK   88  A    between atoms: _261  and  _262
REMARK   89  A    between atoms: _261  and  _264
REMARK   90  A    between atoms: _267  and  _269
REMARK   91  A    between atoms: _269  and  _270
REMARK   92  A    between atoms: _269  and  _272
REMARK   93  A    between atoms: _272  and  _273
REMARK   94  A    between atoms: _276  and  _278
REMARK   95  A    between atoms: _278  and  _279
REMARK   96  A    between atoms: _282  and  _284
REMARK   97  A    between atoms: _284  and  _285
REMARK   98  A    between atoms: _284  and  _287
REMARK   99  A    between atoms: _290  and  _292
REMARK  100  A    between atoms: _292  and  _293
REMARK  101  A    between atoms: _292  and  _295
REMARK  102  A    between atoms: _295  and  _296
REMARK  103  A    between atoms: _299  and  _301
REMARK  104  A    between atoms: _301  and  _302
REMARK  105  A    between atoms: _301  and  _304
REMARK  106  A    between atoms: _304  and  _305
REMARK  107  A    between atoms: _307  and  _309
REMARK  108  A    between atoms: _309  and  _310
REMARK  109  A    between atoms: _309  and  _312
REMARK  110  A    between atoms: _312  and  _313
REMARK  111  A    between atoms: _313  and  _314
REMARK  112  A    between atoms: _314  and  _315
REMARK  113  A    between atoms: _324  and  _326
REMARK  114  A    between atoms: _326  and  _327
REMARK  115  A    between atoms: _326  and  _329
REMARK  116  A    between atoms: _329  and  _330
REMARK  117  A    between atoms: _333  and  _335
REMARK  118  A    between atoms: _335  and  _336
REMARK  119  A    between atoms: _335  and  _338
REMARK  120  A    between atoms: _338  and  _339
REMARK  121  A    between atoms: _343  and  _344
REMARK  122  A    between atoms: _350  and  _351
REMARK  123  A    between atoms: _356  and  _358
REMARK  124  A    between atoms: _358  and  _359
REMARK  125  A    between atoms: _358  and  _361
REMARK  126  A    between atoms: _361  and  _362
REMARK  127  A    between atoms: _365  and  _367
REMARK  128  A    between atoms: _367  and  _368
REMARK  129  A    between atoms: _367  and  _370
REMARK  130  A    between atoms: _370  and  _371
REMARK  131  A    between atoms: _374  and  _376
REMARK  132  A    between atoms: _376  and  _377
REMARK  133  A    between atoms: _376  and  _379
REMARK  134  A    between atoms: _382  and  _384
REMARK  135  A    between atoms: _384  and  _385
REMARK  136  A    between atoms: _384  and  _387
REMARK  137  A    between atoms: _387  and  _388
REMARK  138  A    between atoms: _398  and  _400
REMARK  139  A    between atoms: _400  and  _401
REMARK  140  A    between atoms: _400  and  _403
REMARK  141  A    between atoms: _403  and  _404
REMARK  142  A    between atoms: _409  and  _411
REMARK  143  A    between atoms: _411  and  _412
REMARK  144  A    between atoms: _411  and  _414
REMARK  145  A    between atoms: _414  and  _415
REMARK  146  A    between atoms: _415  and  _416
REMARK  147  A    between atoms: _416  and  _417
REMARK                            x       y       z     vdW  Elec       q    Type
REMARK                         _______ _______ _______ _____ _____    ______ ____
ROOT
ATOM      1  O   HOH     1      -3.568  -0.792  12.221  0.00  0.00    +0.000 OA
ENDROOT
TORSDOF 0
REMARK  Name = ../refined-set-2016/1ydd/1ydd_pocket.pdb
REMARK  147 active torsions:
REMARK  status: ('A' for Active; 'I' for Inactive)
REMARK    1  A    between atoms: _1  and  _3
REMARK    2  A    between atoms: _3  and  _4
REMARK    3  A    between atoms: _3  and  _6
REMARK    4  A    between atoms: _6  and  _7
REMARK    5  A    between atoms: _17  and  _19
REMARK    6  A    between atoms: _19  and  _20
REMARK    7  A    between atoms: _19  and  _22
REMARK    8  A    between atoms: _22  and  _23
REMARK    9  A    between atoms: _28  and  _29
REMARK   10  A    between atoms: _31  and  _33
REMARK   11  A    between atoms: _33  and  _34
REMARK   12  A    between atoms: _33  and  _36
REMARK   13  A    between atoms: _36  and  _37
REMARK   14  A    between atoms: _40  and  _41
REMARK   15  A    between atoms: _46  and  _48
REMARK   16  A    between atoms: _48  and  _49
REMARK   17  A    between atoms: _48  and  _51
REMARK   18  A    between atoms: _51  and  _52
REMARK   19  A    between atoms: _57  and  _59
REMARK   20  A    between atoms: _59  and  _60
REMARK   21  A    between atoms: _59  and  _62
REMARK   22  A    between atoms: _62  and  _63
REMARK   23  A    between atoms: _68  and  _70
REMARK   24  A    between atoms: _70  and  _71
REMARK   25  A    between atoms: _74  and  _76
REMARK   26  A    between atoms: _76  and  _77
REMARK   27  A    between atoms: _76  and  _79
REMARK   28  A    between atoms: _79  and  _80
REMARK   29  A    between atoms: _85  and  _87
REMARK   30  A    between atoms: _87  and  _88
REMARK   31  A    between atoms: _87  and  _90
REMARK   32  A    between atoms: _90  and  _91
REMARK   33  A    between atoms: _94  and  _96
REMARK   34  A    between atoms: _96  and  _97
REMARK   35  A    between atoms: _96  and  _99
REMARK   36  A    between atoms: _99  and  _100
REMARK   37  A    between atoms: _100  and  _101
REMARK   38  A    between atoms: _106  and  _108
REMARK   39  A    between atoms: _108  and  _109
REMARK   40  A    between atoms: _108  and  _111
REMARK   41  A    between atoms: _111  and  _112
REMARK   42  A    between atoms: _118  and  _120
REMARK   43  A    between atoms: _131  and  _134
REMARK   44  A    between atoms: _134  and  _135
REMARK   45  A    between atoms: _143  and  _144
REMARK   46  A    between atoms: _152  and  _154
REMARK   47  A    between atoms: _154  and  _155
REMARK   48  A    between atoms: _154  and  _157
REMARK   49  A    between atoms: _157  and  _158
REMARK   50  A    between atoms: _158  and  _159
REMARK   51  A    between atoms: _162  and  _164
REMARK   52  A    between atoms: _164  and  _165
REMARK   53  A    between atoms: _164  and  _167
REMARK   54  A    between atoms: _167  and  _168
REMARK   55  A    between atoms: _173  and  _175
REMARK   56  A    between atoms: _175  and  _176
REMARK   57  A    between atoms: _175  and  _178
REMARK   58  A    between atoms: _179  and  _180
REMARK   59  A    between atoms: _183  and  _185
REMARK   60  A    between atoms: _185  and  _186
REMARK   61  A    between atoms: _185  and  _188
REMARK   62  A    between atoms: _188  and  _189
REMARK   63  A    between atoms: _192  and  _194
REMARK   64  A    between atoms: _194  and  _195
REMARK   65  A    between atoms: _194  and  _197
REMARK   66  A    between atoms: _197  and  _198
REMARK   67  A    between atoms: _199  and  ZN_426
REMARK   68  A    between atoms: _203  and  _205
REMARK   69  A    between atoms: _205  and  _206
REMARK   70  A    between atoms: _205  and  _208
REMARK   71  A    between atoms: _208  and  _209
REMARK   72  A    between atoms: _212  and  _214
REMARK   73  A    between atoms: _214  and  _215
REMARK   74  A    between atoms: _214  and  _217
REMARK   75  A    between atoms: _220  and  _222
REMARK   76  A    between atoms: _222  and  _223
REMARK   77  A    between atoms: _222  and  _225
REMARK   78  A    between atoms: _225  and  _226
REMARK   79  A    between atoms: _231  and  _233
REMARK   80  A    between atoms: _233  and  _234
REMARK   81  A    between atoms: _233  and  _236
REMARK   82  A    between atoms: _236  and  _237
REMARK   83  A    between atoms: _247  and  _249
REMARK   84  A    between atoms: _249  and  _250
REMARK   85  A    between atoms: _249  and  _252
REMARK   86  A    between atoms: _252  and  _253
REMARK   87  A    between atoms: _259  and  _261
REMARK   88  A    between atoms: _261  and  _262
REMARK   89  A    between atoms: _261  and  _264
REMARK   90  A    between atoms: _267  and  _269
REMARK   91  A    between atoms: _269  and  _270
REMARK   92  A    between atoms: _269  and  _272
REMARK   93  A    between atoms: _272  and  _273
REMARK   94  A    between atoms: _276  and  _278
REMARK   95  A    between atoms: _278  and  _279
REMARK   96  A    between atoms: _282  and  _284
REMARK   97  A    between atoms: _284  and  _285
REMARK   98  A    between atoms: _284  and  _287
REMARK   99  A    between atoms: _290  and  _292
REMARK  100  A    between atoms: _292  and  _293
REMARK  101  A    between atoms: _292  and  _295
REMARK  102  A    between atoms: _295  and  _296
REMARK  103  A    between atoms: _299  and  _301
REMARK  104  A    between atoms: _301  and  _302
REMARK  105  A    between atoms: _301  and  _304
REMARK  106  A    between atoms: _304  and  _305
REMARK  107  A    between atoms: _307  and  _309
REMARK  108  A    between atoms: _309  and  _310
REMARK  109  A    between atoms: _309  and  _312
REMARK  110  A    between atoms: _312  and  _313
REMARK  111  A    between atoms: _313  and  _314
REMARK  112  A    between atoms: _314  and  _315
REMARK  113  A    between atoms: _324  and  _326
REMARK  114  A    between atoms: _326  and  _327
REMARK  115  A    between atoms: _326  and  _329
REMARK  116  A    between atoms: _329  and  _330
REMARK  117  A    between atoms: _333  and  _335
REMARK  118  A    between atoms: _335  and  _336
REMARK  119  A    between atoms: _335  and  _338
REMARK  120  A    between atoms: _338  and  _339
REMARK  121  A    between atoms: _343  and  _344
REMARK  122  A    between atoms: _350  and  _351
REMARK  123  A    between atoms: _356  and  _358
REMARK  124  A    between atoms: _358  and  _359
REMARK  125  A    between atoms: _358  and  _361
REMARK  126  A    between atoms: _361  and  _362
REMARK  127  A    between atoms: _365  and  _367
REMARK  128  A    between atoms: _367  and  _368
REMARK  129  A    between atoms: _367  and  _370
REMARK  130  A    between atoms: _370  and  _371
REMARK  131  A    between atoms: _374  and  _376
REMARK  132  A    between atoms: _376  and  _377
REMARK  133  A    between atoms: _376  and  _379
REMARK  134  A    between atoms: _382  and  _384
REMARK  135  A    between atoms: _384  and  _385
REMARK  136  A    between atoms: _384  and  _387
REMARK  137  A    between atoms: _387  and  _388
REMARK  138  A    between atoms: _398  and  _400
REMARK  139  A    between atoms: _400  and  _401
REMARK  140  A    between atoms: _400  and  _403
REMARK  141  A    between atoms: _403  and  _404
REMARK  142  A    between atoms: _409  and  _411
REMARK  143  A    between atoms: _411  and  _412
REMARK  144  A    between atoms: _411  and  _414
REMARK  145  A    between atoms: _414  and  _415
REMARK  146  A    between atoms: _415  and  _416
REMARK  147  A    between atoms: _416  and  _417
REMARK                            x       y       z     vdW  Elec       q    Type
REMARK                         _______ _______ _______ _____ _____    ______ ____
ROOT
ATOM      1  O   HOH     1      -1.212  -3.920  15.965  0.00  0.00    +0.000 OA
ENDROOT
TORSDOF 0
REMARK  Name = ../refined-set-2016/1ydd/1ydd_pocket.pdb
REMARK  147 active torsions:
REMARK  status: ('A' for Active; 'I' for Inactive)
REMARK    1  A    between atoms: _1  and  _3
REMARK    2  A    between atoms: _3  and  _4
REMARK    3  A    between atoms: _3  and  _6
REMARK    4  A    between atoms: _6  and  _7
REMARK    5  A    between atoms: _17  and  _19
REMARK    6  A    between atoms: _19  and  _20
REMARK    7  A    between atoms: _19  and  _22
REMARK    8  A    between atoms: _22  and  _23
REMARK    9  A    between atoms: _28  and  _29
REMARK   10  A    between atoms: _31  and  _33
REMARK   11  A    between atoms: _33  and  _34
REMARK   12  A    between atoms: _33  and  _36
REMARK   13  A    between atoms: _36  and  _37
REMARK   14  A    between atoms: _40  and  _41
REMARK   15  A    between atoms: _46  and  _48
REMARK   16  A    between atoms: _48  and  _49
REMARK   17  A    between atoms: _48  and  _51
REMARK   18  A    between atoms: _51  and  _52
REMARK   19  A    between atoms: _57  and  _59
REMARK   20  A    between atoms: _59  and  _60
REMARK   21  A    between atoms: _59  and  _62
REMARK   22  A    between atoms: _62  and  _63
REMARK   23  A    between atoms: _68  and  _70
REMARK   24  A    between atoms: _70  and  _71
REMARK   25  A    between atoms: _74  and  _76
REMARK   26  A    between atoms: _76  and  _77
REMARK   27  A    between atoms: _76  and  _79
REMARK   28  A    between atoms: _79  and  _80
REMARK   29  A    between atoms: _85  and  _87
REMARK   30  A    between atoms: _87  and  _88
REMARK   31  A    between atoms: _87  and  _90
REMARK   32  A    between atoms: _90  and  _91
REMARK   33  A    between atoms: _94  and  _96
REMARK   34  A    between atoms: _96  and  _97
REMARK   35  A    between atoms: _96  and  _99
REMARK   36  A    between atoms: _99  and  _100
REMARK   37  A    between atoms: _100  and  _101
REMARK   38  A    between atoms: _106  and  _108
REMARK   39  A    between atoms: _108  and  _109
REMARK   40  A    between atoms: _108  and  _111
REMARK   41  A    between atoms: _111  and  _112
REMARK   42  A    between atoms: _118  and  _120
REMARK   43  A    between atoms: _131  and  _134
REMARK   44  A    between atoms: _134  and  _135
REMARK   45  A    between atoms: _143  and  _144
REMARK   46  A    between atoms: _152  and  _154
REMARK   47  A    between atoms: _154  and  _155
REMARK   48  A    between atoms: _154  and  _157
REMARK   49  A    between atoms: _157  and  _158
REMARK   50  A    between atoms: _158  and  _159
REMARK   51  A    between atoms: _162  and  _164
REMARK   52  A    between atoms: _164  and  _165
REMARK   53  A    between atoms: _164  and  _167
REMARK   54  A    between atoms: _167  and  _168
REMARK   55  A    between atoms: _173  and  _175
REMARK   56  A    between atoms: _175  and  _176
REMARK   57  A    between atoms: _175  and  _178
REMARK   58  A    between atoms: _179  and  _180
REMARK   59  A    between atoms: _183  and  _185
REMARK   60  A    between atoms: _185  and  _186
REMARK   61  A    between atoms: _185  and  _188
REMARK   62  A    between atoms: _188  and  _189
REMARK   63  A    between atoms: _192  and  _194
REMARK   64  A    between atoms: _194  and  _195
REMARK   65  A    between atoms: _194  and  _197
REMARK   66  A    between atoms: _197  and  _198
REMARK   67  A    between atoms: _199  and  ZN_426
REMARK   68  A    between atoms: _203  and  _205
REMARK   69  A    between atoms: _205  and  _206
REMARK   70  A    between atoms: _205  and  _208
REMARK   71  A    between atoms: _208  and  _209
REMARK   72  A    between atoms: _212  and  _214
REMARK   73  A    between atoms: _214  and  _215
REMARK   74  A    between atoms: _214  and  _217
REMARK   75  A    between atoms: _220  and  _222
REMARK   76  A    between atoms: _222  and  _223
REMARK   77  A    between atoms: _222  and  _225
REMARK   78  A    between atoms: _225  and  _226
REMARK   79  A    between atoms: _231  and  _233
REMARK   80  A    between atoms: _233  and  _234
REMARK   81  A    between atoms: _233  and  _236
REMARK   82  A    between atoms: _236  and  _237
REMARK   83  A    between atoms: _247  and  _249
REMARK   84  A    between atoms: _249  and  _250
REMARK   85  A    between atoms: _249  and  _252
REMARK   86  A    between atoms: _252  and  _253
REMARK   87  A    between atoms: _259  and  _261
REMARK   88  A    between atoms: _261  and  _262
REMARK   89  A    between atoms: _261  and  _264
REMARK   90  A    between atoms: _267  and  _269
REMARK   91  A    between atoms: _269  and  _270
REMARK   92  A    between atoms: _269  and  _272
REMARK   93  A    between atoms: _272  and  _273
REMARK   94  A    between atoms: _276  and  _278
REMARK   95  A    between atoms: _278  and  _279
REMARK   96  A    between atoms: _282  and  _284
REMARK   97  A    between atoms: _284  and  _285
REMARK   98  A    between atoms: _284  and  _287
REMARK   99  A    between atoms: _290  and  _292
REMARK  100  A    between atoms: _292  and  _293
REMARK  101  A    between atoms: _292  and  _295
REMARK  102  A    between atoms: _295  and  _296
REMARK  103  A    between atoms: _299  and  _301
REMARK  104  A    between atoms: _301  and  _302
REMARK  105  A    between atoms: _301  and  _304
REMARK  106  A    between atoms: _304  and  _305
REMARK  107  A    between atoms: _307  and  _309
REMARK  108  A    between atoms: _309  and  _310
REMARK  109  A    between atoms: _309  and  _312
REMARK  110  A    between atoms: _312  and  _313
REMARK  111  A    between atoms: _313  and  _314
REMARK  112  A    between atoms: _314  and  _315
REMARK  113  A    between atoms: _324  and  _326
REMARK  114  A    between atoms: _326  and  _327
REMARK  115  A    between atoms: _326  and  _329
REMARK  116  A    between atoms: _329  and  _330
REMARK  117  A    between atoms: _333  and  _335
REMARK  118  A    between atoms: _335  and  _336
REMARK  119  A    between atoms: _335  and  _338
REMARK  120  A    between atoms: _338  and  _339
REMARK  121  A    between atoms: _343  and  _344
REMARK  122  A    between atoms: _350  and  _351
REMARK  123  A    between atoms: _356  and  _358
REMARK  124  A    between atoms: _358  and  _359
REMARK  125  A    between atoms: _358  and  _361
REMARK  126  A    between atoms: _361  and  _362
REMARK  127  A    between atoms: _365  and  _367
REMARK  128  A    between atoms: _367  and  _368
REMARK  129  A    between atoms: _367  and  _370
REMARK  130  A    between atoms: _370  and  _371
REMARK  131  A    between atoms: _374  and  _376
REMARK  132  A    between atoms: _376  and  _377
REMARK  133  A    between atoms: _376  and  _379
REMARK  134  A    between atoms: _382  and  _384
REMARK  135  A    between atoms: _384  and  _385
REMARK  136  A    between atoms: _384  and  _387
REMARK  137  A    between atoms: _387  and  _388
REMARK  138  A    between atoms: _398  and  _400
REMARK  139  A    between atoms: _400  and  _401
REMARK  140  A    between atoms: _400  and  _403
REMARK  141  A    between atoms: _403  and  _404
REMARK  142  A    between atoms: _409  and  _411
REMARK  143  A    between atoms: _411  and  _412
REMARK  144  A    between atoms: _411  and  _414
REMARK  145  A    between atoms: _414  and  _415
REMARK  146  A    between atoms: _415  and  _416
REMARK  147  A    between atoms: _416  and  _417
REMARK                            x       y       z     vdW  Elec       q    Type
REMARK                         _______ _______ _______ _____ _____    ______ ____
ROOT
ATOM      1  O   HOH     1      -3.901   4.253  10.384  0.00  0.00    +0.000 OA
ENDROOT
TORSDOF 0
REMARK  Name = ../refined-set-2016/1ydd/1ydd_pocket.pdb
REMARK  147 active torsions:
REMARK  status: ('A' for Active; 'I' for Inactive)
REMARK    1  A    between atoms: _1  and  _3
REMARK    2  A    between atoms: _3  and  _4
REMARK    3  A    between atoms: _3  and  _6
REMARK    4  A    between atoms: _6  and  _7
REMARK    5  A    between atoms: _17  and  _19
REMARK    6  A    between atoms: _19  and  _20
REMARK    7  A    between atoms: _19  and  _22
REMARK    8  A    between atoms: _22  and  _23
REMARK    9  A    between atoms: _28  and  _29
REMARK   10  A    between atoms: _31  and  _33
REMARK   11  A    between atoms: _33  and  _34
REMARK   12  A    between atoms: _33  and  _36
REMARK   13  A    between atoms: _36  and  _37
REMARK   14  A    between atoms: _40  and  _41
REMARK   15  A    between atoms: _46  and  _48
REMARK   16  A    between atoms: _48  and  _49
REMARK   17  A    between atoms: _48  and  _51
REMARK   18  A    between atoms: _51  and  _52
REMARK   19  A    between atoms: _57  and  _59
REMARK   20  A    between atoms: _59  and  _60
REMARK   21  A    between atoms: _59  and  _62
REMARK   22  A    between atoms: _62  and  _63
REMARK   23  A    between atoms: _68  and  _70
REMARK   24  A    between atoms: _70  and  _71
REMARK   25  A    between atoms: _74  and  _76
REMARK   26  A    between atoms: _76  and  _77
REMARK   27  A    between atoms: _76  and  _79
REMARK   28  A    between atoms: _79  and  _80
REMARK   29  A    between atoms: _85  and  _87
REMARK   30  A    between atoms: _87  and  _88
REMARK   31  A    between atoms: _87  and  _90
REMARK   32  A    between atoms: _90  and  _91
REMARK   33  A    between atoms: _94  and  _96
REMARK   34  A    between atoms: _96  and  _97
REMARK   35  A    between atoms: _96  and  _99
REMARK   36  A    between atoms: _99  and  _100
REMARK   37  A    between atoms: _100  and  _101
REMARK   38  A    between atoms: _106  and  _108
REMARK   39  A    between atoms: _108  and  _109
REMARK   40  A    between atoms: _108  and  _111
REMARK   41  A    between atoms: _111  and  _112
REMARK   42  A    between atoms: _118  and  _120
REMARK   43  A    between atoms: _131  and  _134
REMARK   44  A    between atoms: _134  and  _135
REMARK   45  A    between atoms: _143  and  _144
REMARK   46  A    between atoms: _152  and  _154
REMARK   47  A    between atoms: _154  and  _155
REMARK   48  A    between atoms: _154  and  _157
REMARK   49  A    between atoms: _157  and  _158
REMARK   50  A    between atoms: _158  and  _159
REMARK   51  A    between atoms: _162  and  _164
REMARK   52  A    between atoms: _164  and  _165
REMARK   53  A    between atoms: _164  and  _167
REMARK   54  A    between atoms: _167  and  _168
REMARK   55  A    between atoms: _173  and  _175
REMARK   56  A    between atoms: _175  and  _176
REMARK   57  A    between atoms: _175  and  _178
REMARK   58  A    between atoms: _179  and  _180
REMARK   59  A    between atoms: _183  and  _185
REMARK   60  A    between atoms: _185  and  _186
REMARK   61  A    between atoms: _185  and  _188
REMARK   62  A    between atoms: _188  and  _189
REMARK   63  A    between atoms: _192  and  _194
REMARK   64  A    between atoms: _194  and  _195
REMARK   65  A    between atoms: _194  and  _197
REMARK   66  A    between atoms: _197  and  _198
REMARK   67  A    between atoms: _199  and  ZN_426
REMARK   68  A    between atoms: _203  and  _205
REMARK   69  A    between atoms: _205  and  _206
REMARK   70  A    between atoms: _205  and  _208
REMARK   71  A    between atoms: _208  and  _209
REMARK   72  A    between atoms: _212  and  _214
REMARK   73  A    between atoms: _214  and  _215
REMARK   74  A    between atoms: _214  and  _217
REMARK   75  A    between atoms: _220  and  _222
REMARK   76  A    between atoms: _222  and  _223
REMARK   77  A    between atoms: _222  and  _225
REMARK   78  A    between atoms: _225  and  _226
REMARK   79  A    between atoms: _231  and  _233
REMARK   80  A    between atoms: _233  and  _234
REMARK   81  A    between atoms: _233  and  _236
REMARK   82  A    between atoms: _236  and  _237
REMARK   83  A    between atoms: _247  and  _249
REMARK   84  A    between atoms: _249  and  _250
REMARK   85  A    between atoms: _249  and  _252
REMARK   86  A    between atoms: _252  and  _253
REMARK   87  A    between atoms: _259  and  _261
REMARK   88  A    between atoms: _261  and  _262
REMARK   89  A    between atoms: _261  and  _264
REMARK   90  A    between atoms: _267  and  _269
REMARK   91  A    between atoms: _269  and  _270
REMARK   92  A    between atoms: _269  and  _272
REMARK   93  A    between atoms: _272  and  _273
REMARK   94  A    between atoms: _276  and  _278
REMARK   95  A    between atoms: _278  and  _279
REMARK   96  A    between atoms: _282  and  _284
REMARK   97  A    between atoms: _284  and  _285
REMARK   98  A    between atoms: _284  and  _287
REMARK   99  A    between atoms: _290  and  _292
REMARK  100  A    between atoms: _292  and  _293
REMARK  101  A    between atoms: _292  and  _295
REMARK  102  A    between atoms: _295  and  _296
REMARK  103  A    between atoms: _299  and  _301
REMARK  104  A    between atoms: _301  and  _302
REMARK  105  A    between atoms: _301  and  _304
REMARK  106  A    between atoms: _304  and  _305
REMARK  107  A    between atoms: _307  and  _309
REMARK  108  A    between atoms: _309  and  _310
REMARK  109  A    between atoms: _309  and  _312
REMARK  110  A    between atoms: _312  and  _313
REMARK  111  A    between atoms: _313  and  _314
REMARK  112  A    between atoms: _314  and  _315
REMARK  113  A    between atoms: _324  and  _326
REMARK  114  A    between atoms: _326  and  _327
REMARK  115  A    between atoms: _326  and  _329
REMARK  116  A    between atoms: _329  and  _330
REMARK  117  A    between atoms: _333  and  _335
REMARK  118  A    between atoms: _335  and  _336
REMARK  119  A    between atoms: _335  and  _338
REMARK  120  A    between atoms: _338  and  _339
REMARK  121  A    between atoms: _343  and  _344
REMARK  122  A    between atoms: _350  and  _351
REMARK  123  A    between atoms: _356  and  _358
REMARK  124  A    between atoms: _358  and  _359
REMARK  125  A    between atoms: _358  and  _361
REMARK  126  A    between atoms: _361  and  _362
REMARK  127  A    between atoms: _365  and  _367
REMARK  128  A    between atoms: _367  and  _368
REMARK  129  A    between atoms: _367  and  _370
REMARK  130  A    between atoms: _370  and  _371
REMARK  131  A    between atoms: _374  and  _376
REMARK  132  A    between atoms: _376  and  _377
REMARK  133  A    between atoms: _376  and  _379
REMARK  134  A    between atoms: _382  and  _384
REMARK  135  A    between atoms: _384  and  _385
REMARK  136  A    between atoms: _384  and  _387
REMARK  137  A    between atoms: _387  and  _388
REMARK  138  A    between atoms: _398  and  _400
REMARK  139  A    between atoms: _400  and  _401
REMARK  140  A    between atoms: _400  and  _403
REMARK  141  A    between atoms: _403  and  _404
REMARK  142  A    between atoms: _409  and  _411
REMARK  143  A    between atoms: _411  and  _412
REMARK  144  A    between atoms: _411  and  _414
REMARK  145  A    between atoms: _414  and  _415
REMARK  146  A    between atoms: _415  and  _416
REMARK  147  A    between atoms: _416  and  _417
REMARK                            x       y       z     vdW  Elec       q    Type
REMARK                         _______ _______ _______ _____ _____    ______ ____
ROOT
ATOM      1  O   HOH     1      -2.015   5.629  10.031  0.00  0.00    +0.000 OA
ENDROOT
TORSDOF 0
