REMARK  Name = ../refined-set-2016/4u0w/4u0w_pocket.pdb
REMARK  261 active torsions:
REMARK  status: ('A' for Active; 'I' for Inactive)
REMARK    1  A    between atoms: _1  and  _3
REMARK    2  A    between atoms: _3  and  _4
REMARK    3  A    between atoms: _3  and  _6
REMARK    4  A    between atoms: _6  and  _7
REMARK    5  A    between atoms: _7  and  _8
REMARK    6  A    between atoms: _13  and  _15
REMARK    7  A    between atoms: _15  and  _16
REMARK    8  A    between atoms: _15  and  _18
REMARK    9  A    between atoms: _18  and  _19
REMARK   10  A    between atoms: _22  and  _24
REMARK   11  A    between atoms: _24  and  _25
REMARK   12  A    between atoms: _24  and  _27
REMARK   13  A    between atoms: _27  and  _28
REMARK   14  A    between atoms: _31  and  _33
REMARK   15  A    between atoms: _33  and  _34
REMARK   16  A    between atoms: _33  and  _36
REMARK   17  A    between atoms: _36  and  _37
REMARK   18  A    between atoms: _40  and  _42
REMARK   19  A    between atoms: _42  and  _43
REMARK   20  A    between atoms: _42  and  _45
REMARK   21  A    between atoms: _45  and  _46
REMARK   22  A    between atoms: _48  and  _50
REMARK   23  A    between atoms: _50  and  _51
REMARK   24  A    between atoms: _50  and  _53
REMARK   25  A    between atoms: _53  and  _54
REMARK   26  A    between atoms: _60  and  _62
REMARK   27  A    between atoms: _62  and  _63
REMARK   28  A    between atoms: _62  and  _65
REMARK   29  A    between atoms: _65  and  _66
REMARK   30  A    between atoms: _69  and  _71
REMARK   31  A    between atoms: _71  and  _72
REMARK   32  A    between atoms: _71  and  _74
REMARK   33  A    between atoms: _74  and  _75
REMARK   34  A    between atoms: _75  and  _76
REMARK   35  A    between atoms: _79  and  _81
REMARK   36  A    between atoms: _81  and  _82
REMARK   37  A    between atoms: _81  and  _84
REMARK   38  A    between atoms: _84  and  _85
REMARK   39  A    between atoms: _88  and  _90
REMARK   40  A    between atoms: _90  and  _91
REMARK   41  A    between atoms: _90  and  _93
REMARK   42  A    between atoms: _93  and  _94
REMARK   43  A    between atoms: _94  and  _95
REMARK   44  A    between atoms: _97  and  _99
REMARK   45  A    between atoms: _99  and  _100
REMARK   46  A    between atoms: _99  and  _102
REMARK   47  A    between atoms: _102  and  _103
REMARK   48  A    between atoms: _103  and  _104
REMARK   49  A    between atoms: _104  and  _105
REMARK   50  A    between atoms: _105  and  _106
REMARK   51  A    between atoms: _111  and  _112
REMARK   52  A    between atoms: _117  and  _119
REMARK   53  A    between atoms: _119  and  _120
REMARK   54  A    between atoms: _122  and  _124
REMARK   55  A    between atoms: _124  and  _125
REMARK   56  A    between atoms: _124  and  _127
REMARK   57  A    between atoms: _127  and  _128
REMARK   58  A    between atoms: _130  and  _132
REMARK   59  A    between atoms: _132  and  _133
REMARK   60  A    between atoms: _132  and  _135
REMARK   61  A    between atoms: _135  and  _136
REMARK   62  A    between atoms: _139  and  _141
REMARK   63  A    between atoms: _141  and  _142
REMARK   64  A    between atoms: _141  and  _144
REMARK   65  A    between atoms: _144  and  _145
REMARK   66  A    between atoms: _145  and  _146
REMARK   67  A    between atoms: _146  and  _147
REMARK   68  A    between atoms: _156  and  _158
REMARK   69  A    between atoms: _158  and  _159
REMARK   70  A    between atoms: _158  and  _161
REMARK   71  A    between atoms: _161  and  _162
REMARK   72  A    between atoms: _162  and  _163
REMARK   73  A    between atoms: _163  and  _164
REMARK   74  A    between atoms: _173  and  _175
REMARK   75  A    between atoms: _175  and  _176
REMARK   76  A    between atoms: _179  and  _181
REMARK   77  A    between atoms: _181  and  _182
REMARK   78  A    between atoms: _181  and  _184
REMARK   79  A    between atoms: _184  and  _185
REMARK   80  A    between atoms: _188  and  _190
REMARK   81  A    between atoms: _190  and  _191
REMARK   82  A    between atoms: _190  and  _193
REMARK   83  A    between atoms: _193  and  _194
REMARK   84  A    between atoms: _194  and  _195
REMARK   85  A    between atoms: _198  and  _200
REMARK   86  A    between atoms: _200  and  _201
REMARK   87  A    between atoms: _200  and  _203
REMARK   88  A    between atoms: _203  and  _204
REMARK   89  A    between atoms: _206  and  _208
REMARK   90  A    between atoms: _208  and  _209
REMARK   91  A    between atoms: _208  and  _211
REMARK   92  A    between atoms: _211  and  _212
REMARK   93  A    between atoms: _214  and  _216
REMARK   94  A    between atoms: _216  and  _217
REMARK   95  A    between atoms: _216  and  _219
REMARK   96  A    between atoms: _219  and  _220
REMARK   97  A    between atoms: _225  and  _227
REMARK   98  A    between atoms: _227  and  _228
REMARK   99  A    between atoms: _227  and  _230
REMARK  100  A    between atoms: _230  and  _231
REMARK  101  A    between atoms: _234  and  _236
REMARK  102  A    between atoms: _236  and  _237
REMARK  103  A    between atoms: _236  and  _239
REMARK  104  A    between atoms: _239  and  _240
REMARK  105  A    between atoms: _245  and  _247
REMARK  106  A    between atoms: _247  and  _248
REMARK  107  A    between atoms: _247  and  _250
REMARK  108  A    between atoms: _250  and  _251
REMARK  109  A    between atoms: _257  and  _259
REMARK  110  A    between atoms: _259  and  _260
REMARK  111  A    between atoms: _259  and  _262
REMARK  112  A    between atoms: _262  and  _263
REMARK  113  A    between atoms: _263  and  _264
REMARK  114  A    between atoms: _269  and  _271
REMARK  115  A    between atoms: _271  and  _272
REMARK  116  A    between atoms: _271  and  _274
REMARK  117  A    between atoms: _274  and  _275
REMARK  118  A    between atoms: _277  and  _279
REMARK  119  A    between atoms: _279  and  _280
REMARK  120  A    between atoms: _279  and  _282
REMARK  121  A    between atoms: _282  and  _283
REMARK  122  A    between atoms: _285  and  _287
REMARK  123  A    between atoms: _287  and  _288
REMARK  124  A    between atoms: _287  and  _290
REMARK  125  A    between atoms: _290  and  _291
REMARK  126  A    between atoms: _294  and  _296
REMARK  127  A    between atoms: _296  and  _297
REMARK  128  A    between atoms: _296  and  _299
REMARK  129  A    between atoms: _299  and  _300
REMARK  130  A    between atoms: _305  and  _306
REMARK  131  A    between atoms: _308  and  _310
REMARK  132  A    between atoms: _310  and  _311
REMARK  133  A    between atoms: _310  and  _313
REMARK  134  A    between atoms: _313  and  _314
REMARK  135  A    between atoms: _317  and  _319
REMARK  136  A    between atoms: _319  and  _320
REMARK  137  A    between atoms: _319  and  _322
REMARK  138  A    between atoms: _322  and  _323
REMARK  139  A    between atoms: _328  and  _330
REMARK  140  A    between atoms: _330  and  _331
REMARK  141  A    between atoms: _330  and  _333
REMARK  142  A    between atoms: _333  and  _334
REMARK  143  A    between atoms: _337  and  _339
REMARK  144  A    between atoms: _339  and  _340
REMARK  145  A    between atoms: _339  and  _342
REMARK  146  A    between atoms: _342  and  _343
REMARK  147  A    between atoms: _343  and  _344
REMARK  148  A    between atoms: _347  and  _349
REMARK  149  A    between atoms: _349  and  _350
REMARK  150  A    between atoms: _349  and  _352
REMARK  151  A    between atoms: _352  and  _353
REMARK  152  A    between atoms: _356  and  _358
REMARK  153  A    between atoms: _358  and  _359
REMARK  154  A    between atoms: _362  and  _364
REMARK  155  A    between atoms: _364  and  _365
REMARK  156  A    between atoms: _364  and  _367
REMARK  157  A    between atoms: _367  and  _368
REMARK  158  A    between atoms: _368  and  _369
REMARK  159  A    between atoms: _369  and  _370
REMARK  160  A    between atoms: _370  and  _371
REMARK  161  A    between atoms: _375  and  _377
REMARK  162  A    between atoms: _377  and  _378
REMARK  163  A    between atoms: _377  and  _380
REMARK  164  A    between atoms: _380  and  _381
REMARK  165  A    between atoms: _381  and  _382
REMARK  166  A    between atoms: _387  and  _389
REMARK  167  A    between atoms: _389  and  _390
REMARK  168  A    between atoms: _389  and  _392
REMARK  169  A    between atoms: _392  and  _393
REMARK  170  A    between atoms: _393  and  _394
REMARK  171  A    between atoms: _397  and  _399
REMARK  172  A    between atoms: _399  and  _400
REMARK  173  A    between atoms: _399  and  _402
REMARK  174  A    between atoms: _402  and  _403
REMARK  175  A    between atoms: _406  and  _408
REMARK  176  A    between atoms: _408  and  _409
REMARK  177  A    between atoms: _408  and  _411
REMARK  178  A    between atoms: _411  and  _412
REMARK  179  A    between atoms: _415  and  _417
REMARK  180  A    between atoms: _417  and  _418
REMARK  181  A    between atoms: _417  and  _420
REMARK  182  A    between atoms: _420  and  _421
REMARK  183  A    between atoms: _424  and  _426
REMARK  184  A    between atoms: _426  and  _427
REMARK  185  A    between atoms: _426  and  _429
REMARK  186  A    between atoms: _429  and  _430
REMARK  187  A    between atoms: _433  and  _435
REMARK  188  A    between atoms: _435  and  _436
REMARK  189  A    between atoms: _435  and  _438
REMARK  190  A    between atoms: _438  and  _439
REMARK  191  A    between atoms: _439  and  _440
REMARK  192  A    between atoms: _440  and  _441
REMARK  193  A    between atoms: _441  and  _442
REMARK  194  A    between atoms: _446  and  _448
REMARK  195  A    between atoms: _448  and  _449
REMARK  196  A    between atoms: _448  and  _451
REMARK  197  A    between atoms: _451  and  _452
REMARK  198  A    between atoms: _452  and  _453
REMARK  199  A    between atoms: _453  and  _454
REMARK  200  A    between atoms: _463  and  _465
REMARK  201  A    between atoms: _465  and  _466
REMARK  202  A    between atoms: _465  and  _468
REMARK  203  A    between atoms: _468  and  _469
REMARK  204  A    between atoms: _472  and  _474
REMARK  205  A    between atoms: _474  and  _475
REMARK  206  A    between atoms: _474  and  _477
REMARK  207  A    between atoms: _477  and  _478
REMARK  208  A    between atoms: _481  and  _483
REMARK  209  A    between atoms: _483  and  _484
REMARK  210  A    between atoms: _483  and  _486
REMARK  211  A    between atoms: _486  and  _487
REMARK  212  A    between atoms: _493  and  _495
REMARK  213  A    between atoms: _495  and  _496
REMARK  214  A    between atoms: _495  and  _498
REMARK  215  A    between atoms: _498  and  _499
REMARK  216  A    between atoms: _499  and  _500
REMARK  217  A    between atoms: _503  and  _505
REMARK  218  A    between atoms: _505  and  _506
REMARK  219  A    between atoms: _505  and  _508
REMARK  220  A    between atoms: _508  and  _509
REMARK  221  A    between atoms: _514  and  _516
REMARK  222  A    between atoms: _516  and  _517
REMARK  223  A    between atoms: _520  and  _522
REMARK  224  A    between atoms: _522  and  _523
REMARK  225  A    between atoms: _522  and  _525
REMARK  226  A    between atoms: _525  and  _526
REMARK  227  A    between atoms: _526  and  _527
REMARK  228  A    between atoms: _527  and  _528
REMARK  229  A    between atoms: _528  and  _529
REMARK  230  A    between atoms: _533  and  _535
REMARK  231  A    between atoms: _535  and  _536
REMARK  232  A    between atoms: _535  and  _538
REMARK  233  A    between atoms: _538  and  _539
REMARK  234  A    between atoms: _541  and  _543
REMARK  235  A    between atoms: _543  and  _544
REMARK  236  A    between atoms: _543  and  _546
REMARK  237  A    between atoms: _549  and  _551
REMARK  238  A    between atoms: _551  and  _552
REMARK  239  A    between atoms: _551  and  _554
REMARK  240  A    between atoms: _554  and  _555
REMARK  241  A    between atoms: _560  and  _561
REMARK  242  A    between atoms: _563  and  _565
REMARK  243  A    between atoms: _565  and  _566
REMARK  244  A    between atoms: _565  and  _568
REMARK  245  A    between atoms: _568  and  _569
REMARK  246  A    between atoms: _574  and  _575
REMARK  247  A    between atoms: _577  and  _579
REMARK  248  A    between atoms: _579  and  _580
REMARK  249  A    between atoms: _579  and  _582
REMARK  250  A    between atoms: _582  and  _583
REMARK  251  A    between atoms: _589  and  _591
REMARK  252  A    between atoms: _591  and  _592
REMARK  253  A    between atoms: _591  and  _594
REMARK  254  A    between atoms: _594  and  _595
REMARK  255  A    between atoms: _595  and  _596
REMARK  256  A    between atoms: _598  and  _600
REMARK  257  A    between atoms: _600  and  _601
REMARK  258  A    between atoms: _600  and  _603
REMARK  259  A    between atoms: _603  and  _604
REMARK  260  A    between atoms: _604  and  _605
REMARK  261  A    between atoms: _605  and  _606
REMARK                            x       y       z     vdW  Elec       q    Type
REMARK                         _______ _______ _______ _____ _____    ______ ____
ROOT
ATOM      1  CB  GLN A   1     -37.735  -4.661  33.174  0.00  0.00    +0.035 C 
ENDROOT
BRANCH   1   2
ATOM      2  CA  GLN A   1     -37.184  -5.519  34.324  0.00  0.00    +0.134 C 
BRANCH   2   3
ATOM      3  N   GLN A   1     -37.273  -4.791  35.565  0.00  0.00    -0.239 NA
ATOM      4  H   GLN A   1     -37.060  -3.773  35.568  0.00  0.00    +0.142 HD
ENDBRANCH   2   3
BRANCH   2   5
ATOM      5  C   GLN A   1     -35.725  -5.878  34.088  0.00  0.00    +0.224 C 
ATOM      6  O   GLN A   1     -34.899  -4.992  33.894  0.00  0.00    -0.287 OA
ENDBRANCH   2   5
ENDBRANCH   1   2
BRANCH   1   7
ATOM      7  CG  GLN A   1     -37.788  -5.343  31.825  0.00  0.00    +0.087 C 
BRANCH   7   8
ATOM      8  CD  GLN A   1     -38.869  -6.400  31.757  0.00  0.00    +0.219 C 
ATOM      9  OE1 GLN A   1     -39.960  -6.216  32.293  0.00  0.00    -0.275 OA
ATOM     10  NE2 GLN A   1     -38.580  -7.504  31.067  0.00  0.00    -0.329 N 
ATOM     11 HE21 GLN A   1     -39.292  -8.255  30.965  0.00  0.00    +0.145 HD
ATOM     12 HE22 GLN A   1     -37.642  -7.614  30.631  0.00  0.00    +0.145 HD
ENDBRANCH   7   8
ENDBRANCH   1   7
TORSDOF 5
REMARK  Name = ../refined-set-2016/4u0w/4u0w_pocket.pdb
REMARK  261 active torsions:
REMARK  status: ('A' for Active; 'I' for Inactive)
REMARK    1  A    between atoms: _1  and  _3
REMARK    2  A    between atoms: _3  and  _4
REMARK    3  A    between atoms: _3  and  _6
REMARK    4  A    between atoms: _6  and  _7
REMARK    5  A    between atoms: _7  and  _8
REMARK    6  A    between atoms: _13  and  _15
REMARK    7  A    between atoms: _15  and  _16
REMARK    8  A    between atoms: _15  and  _18
REMARK    9  A    between atoms: _18  and  _19
REMARK   10  A    between atoms: _22  and  _24
REMARK   11  A    between atoms: _24  and  _25
REMARK   12  A    between atoms: _24  and  _27
REMARK   13  A    between atoms: _27  and  _28
REMARK   14  A    between atoms: _31  and  _33
REMARK   15  A    between atoms: _33  and  _34
REMARK   16  A    between atoms: _33  and  _36
REMARK   17  A    between atoms: _36  and  _37
REMARK   18  A    between atoms: _40  and  _42
REMARK   19  A    between atoms: _42  and  _43
REMARK   20  A    between atoms: _42  and  _45
REMARK   21  A    between atoms: _45  and  _46
REMARK   22  A    between atoms: _48  and  _50
REMARK   23  A    between atoms: _50  and  _51
REMARK   24  A    between atoms: _50  and  _53
REMARK   25  A    between atoms: _53  and  _54
REMARK   26  A    between atoms: _60  and  _62
REMARK   27  A    between atoms: _62  and  _63
REMARK   28  A    between atoms: _62  and  _65
REMARK   29  A    between atoms: _65  and  _66
REMARK   30  A    between atoms: _69  and  _71
REMARK   31  A    between atoms: _71  and  _72
REMARK   32  A    between atoms: _71  and  _74
REMARK   33  A    between atoms: _74  and  _75
REMARK   34  A    between atoms: _75  and  _76
REMARK   35  A    between atoms: _79  and  _81
REMARK   36  A    between atoms: _81  and  _82
REMARK   37  A    between atoms: _81  and  _84
REMARK   38  A    between atoms: _84  and  _85
REMARK   39  A    between atoms: _88  and  _90
REMARK   40  A    between atoms: _90  and  _91
REMARK   41  A    between atoms: _90  and  _93
REMARK   42  A    between atoms: _93  and  _94
REMARK   43  A    between atoms: _94  and  _95
REMARK   44  A    between atoms: _97  and  _99
REMARK   45  A    between atoms: _99  and  _100
REMARK   46  A    between atoms: _99  and  _102
REMARK   47  A    between atoms: _102  and  _103
REMARK   48  A    between atoms: _103  and  _104
REMARK   49  A    between atoms: _104  and  _105
REMARK   50  A    between atoms: _105  and  _106
REMARK   51  A    between atoms: _111  and  _112
REMARK   52  A    between atoms: _117  and  _119
REMARK   53  A    between atoms: _119  and  _120
REMARK   54  A    between atoms: _122  and  _124
REMARK   55  A    between atoms: _124  and  _125
REMARK   56  A    between atoms: _124  and  _127
REMARK   57  A    between atoms: _127  and  _128
REMARK   58  A    between atoms: _130  and  _132
REMARK   59  A    between atoms: _132  and  _133
REMARK   60  A    between atoms: _132  and  _135
REMARK   61  A    between atoms: _135  and  _136
REMARK   62  A    between atoms: _139  and  _141
REMARK   63  A    between atoms: _141  and  _142
REMARK   64  A    between atoms: _141  and  _144
REMARK   65  A    between atoms: _144  and  _145
REMARK   66  A    between atoms: _145  and  _146
REMARK   67  A    between atoms: _146  and  _147
REMARK   68  A    between atoms: _156  and  _158
REMARK   69  A    between atoms: _158  and  _159
REMARK   70  A    between atoms: _158  and  _161
REMARK   71  A    between atoms: _161  and  _162
REMARK   72  A    between atoms: _162  and  _163
REMARK   73  A    between atoms: _163  and  _164
REMARK   74  A    between atoms: _173  and  _175
REMARK   75  A    between atoms: _175  and  _176
REMARK   76  A    between atoms: _179  and  _181
REMARK   77  A    between atoms: _181  and  _182
REMARK   78  A    between atoms: _181  and  _184
REMARK   79  A    between atoms: _184  and  _185
REMARK   80  A    between atoms: _188  and  _190
REMARK   81  A    between atoms: _190  and  _191
REMARK   82  A    between atoms: _190  and  _193
REMARK   83  A    between atoms: _193  and  _194
REMARK   84  A    between atoms: _194  and  _195
REMARK   85  A    between atoms: _198  and  _200
REMARK   86  A    between atoms: _200  and  _201
REMARK   87  A    between atoms: _200  and  _203
REMARK   88  A    between atoms: _203  and  _204
REMARK   89  A    between atoms: _206  and  _208
REMARK   90  A    between atoms: _208  and  _209
REMARK   91  A    between atoms: _208  and  _211
REMARK   92  A    between atoms: _211  and  _212
REMARK   93  A    between atoms: _214  and  _216
REMARK   94  A    between atoms: _216  and  _217
REMARK   95  A    between atoms: _216  and  _219
REMARK   96  A    between atoms: _219  and  _220
REMARK   97  A    between atoms: _225  and  _227
REMARK   98  A    between atoms: _227  and  _228
REMARK   99  A    between atoms: _227  and  _230
REMARK  100  A    between atoms: _230  and  _231
REMARK  101  A    between atoms: _234  and  _236
REMARK  102  A    between atoms: _236  and  _237
REMARK  103  A    between atoms: _236  and  _239
REMARK  104  A    between atoms: _239  and  _240
REMARK  105  A    between atoms: _245  and  _247
REMARK  106  A    between atoms: _247  and  _248
REMARK  107  A    between atoms: _247  and  _250
REMARK  108  A    between atoms: _250  and  _251
REMARK  109  A    between atoms: _257  and  _259
REMARK  110  A    between atoms: _259  and  _260
REMARK  111  A    between atoms: _259  and  _262
REMARK  112  A    between atoms: _262  and  _263
REMARK  113  A    between atoms: _263  and  _264
REMARK  114  A    between atoms: _269  and  _271
REMARK  115  A    between atoms: _271  and  _272
REMARK  116  A    between atoms: _271  and  _274
REMARK  117  A    between atoms: _274  and  _275
REMARK  118  A    between atoms: _277  and  _279
REMARK  119  A    between atoms: _279  and  _280
REMARK  120  A    between atoms: _279  and  _282
REMARK  121  A    between atoms: _282  and  _283
REMARK  122  A    between atoms: _285  and  _287
REMARK  123  A    between atoms: _287  and  _288
REMARK  124  A    between atoms: _287  and  _290
REMARK  125  A    between atoms: _290  and  _291
REMARK  126  A    between atoms: _294  and  _296
REMARK  127  A    between atoms: _296  and  _297
REMARK  128  A    between atoms: _296  and  _299
REMARK  129  A    between atoms: _299  and  _300
REMARK  130  A    between atoms: _305  and  _306
REMARK  131  A    between atoms: _308  and  _310
REMARK  132  A    between atoms: _310  and  _311
REMARK  133  A    between atoms: _310  and  _313
REMARK  134  A    between atoms: _313  and  _314
REMARK  135  A    between atoms: _317  and  _319
REMARK  136  A    between atoms: _319  and  _320
REMARK  137  A    between atoms: _319  and  _322
REMARK  138  A    between atoms: _322  and  _323
REMARK  139  A    between atoms: _328  and  _330
REMARK  140  A    between atoms: _330  and  _331
REMARK  141  A    between atoms: _330  and  _333
REMARK  142  A    between atoms: _333  and  _334
REMARK  143  A    between atoms: _337  and  _339
REMARK  144  A    between atoms: _339  and  _340
REMARK  145  A    between atoms: _339  and  _342
REMARK  146  A    between atoms: _342  and  _343
REMARK  147  A    between atoms: _343  and  _344
REMARK  148  A    between atoms: _347  and  _349
REMARK  149  A    between atoms: _349  and  _350
REMARK  150  A    between atoms: _349  and  _352
REMARK  151  A    between atoms: _352  and  _353
REMARK  152  A    between atoms: _356  and  _358
REMARK  153  A    between atoms: _358  and  _359
REMARK  154  A    between atoms: _362  and  _364
REMARK  155  A    between atoms: _364  and  _365
REMARK  156  A    between atoms: _364  and  _367
REMARK  157  A    between atoms: _367  and  _368
REMARK  158  A    between atoms: _368  and  _369
REMARK  159  A    between atoms: _369  and  _370
REMARK  160  A    between atoms: _370  and  _371
REMARK  161  A    between atoms: _375  and  _377
REMARK  162  A    between atoms: _377  and  _378
REMARK  163  A    between atoms: _377  and  _380
REMARK  164  A    between atoms: _380  and  _381
REMARK  165  A    between atoms: _381  and  _382
REMARK  166  A    between atoms: _387  and  _389
REMARK  167  A    between atoms: _389  and  _390
REMARK  168  A    between atoms: _389  and  _392
REMARK  169  A    between atoms: _392  and  _393
REMARK  170  A    between atoms: _393  and  _394
REMARK  171  A    between atoms: _397  and  _399
REMARK  172  A    between atoms: _399  and  _400
REMARK  173  A    between atoms: _399  and  _402
REMARK  174  A    between atoms: _402  and  _403
REMARK  175  A    between atoms: _406  and  _408
REMARK  176  A    between atoms: _408  and  _409
REMARK  177  A    between atoms: _408  and  _411
REMARK  178  A    between atoms: _411  and  _412
REMARK  179  A    between atoms: _415  and  _417
REMARK  180  A    between atoms: _417  and  _418
REMARK  181  A    between atoms: _417  and  _420
REMARK  182  A    between atoms: _420  and  _421
REMARK  183  A    between atoms: _424  and  _426
REMARK  184  A    between atoms: _426  and  _427
REMARK  185  A    between atoms: _426  and  _429
REMARK  186  A    between atoms: _429  and  _430
REMARK  187  A    between atoms: _433  and  _435
REMARK  188  A    between atoms: _435  and  _436
REMARK  189  A    between atoms: _435  and  _438
REMARK  190  A    between atoms: _438  and  _439
REMARK  191  A    between atoms: _439  and  _440
REMARK  192  A    between atoms: _440  and  _441
REMARK  193  A    between atoms: _441  and  _442
REMARK  194  A    between atoms: _446  and  _448
REMARK  195  A    between atoms: _448  and  _449
REMARK  196  A    between atoms: _448  and  _451
REMARK  197  A    between atoms: _451  and  _452
REMARK  198  A    between atoms: _452  and  _453
REMARK  199  A    between atoms: _453  and  _454
REMARK  200  A    between atoms: _463  and  _465
REMARK  201  A    between atoms: _465  and  _466
REMARK  202  A    between atoms: _465  and  _468
REMARK  203  A    between atoms: _468  and  _469
REMARK  204  A    between atoms: _472  and  _474
REMARK  205  A    between atoms: _474  and  _475
REMARK  206  A    between atoms: _474  and  _477
REMARK  207  A    between atoms: _477  and  _478
REMARK  208  A    between atoms: _481  and  _483
REMARK  209  A    between atoms: _483  and  _484
REMARK  210  A    between atoms: _483  and  _486
REMARK  211  A    between atoms: _486  and  _487
REMARK  212  A    between atoms: _493  and  _495
REMARK  213  A    between atoms: _495  and  _496
REMARK  214  A    between atoms: _495  and  _498
REMARK  215  A    between atoms: _498  and  _499
REMARK  216  A    between atoms: _499  and  _500
REMARK  217  A    between atoms: _503  and  _505
REMARK  218  A    between atoms: _505  and  _506
REMARK  219  A    between atoms: _505  and  _508
REMARK  220  A    between atoms: _508  and  _509
REMARK  221  A    between atoms: _514  and  _516
REMARK  222  A    between atoms: _516  and  _517
REMARK  223  A    between atoms: _520  and  _522
REMARK  224  A    between atoms: _522  and  _523
REMARK  225  A    between atoms: _522  and  _525
REMARK  226  A    between atoms: _525  and  _526
REMARK  227  A    between atoms: _526  and  _527
REMARK  228  A    between atoms: _527  and  _528
REMARK  229  A    between atoms: _528  and  _529
REMARK  230  A    between atoms: _533  and  _535
REMARK  231  A    between atoms: _535  and  _536
REMARK  232  A    between atoms: _535  and  _538
REMARK  233  A    between atoms: _538  and  _539
REMARK  234  A    between atoms: _541  and  _543
REMARK  235  A    between atoms: _543  and  _544
REMARK  236  A    between atoms: _543  and  _546
REMARK  237  A    between atoms: _549  and  _551
REMARK  238  A    between atoms: _551  and  _552
REMARK  239  A    between atoms: _551  and  _554
REMARK  240  A    between atoms: _554  and  _555
REMARK  241  A    between atoms: _560  and  _561
REMARK  242  A    between atoms: _563  and  _565
REMARK  243  A    between atoms: _565  and  _566
REMARK  244  A    between atoms: _565  and  _568
REMARK  245  A    between atoms: _568  and  _569
REMARK  246  A    between atoms: _574  and  _575
REMARK  247  A    between atoms: _577  and  _579
REMARK  248  A    between atoms: _579  and  _580
REMARK  249  A    between atoms: _579  and  _582
REMARK  250  A    between atoms: _582  and  _583
REMARK  251  A    between atoms: _589  and  _591
REMARK  252  A    between atoms: _591  and  _592
REMARK  253  A    between atoms: _591  and  _594
REMARK  254  A    between atoms: _594  and  _595
REMARK  255  A    between atoms: _595  and  _596
REMARK  256  A    between atoms: _598  and  _600
REMARK  257  A    between atoms: _600  and  _601
REMARK  258  A    between atoms: _600  and  _603
REMARK  259  A    between atoms: _603  and  _604
REMARK  260  A    between atoms: _604  and  _605
REMARK  261  A    between atoms: _605  and  _606
REMARK                            x       y       z     vdW  Elec       q    Type
REMARK                         _______ _______ _______ _____ _____    ______ ____
ROOT
ATOM      1  CA  LEU A   1     -32.659  -6.506  30.423  0.00  0.00    +0.133 C 
ENDROOT
BRANCH   1   2
ATOM      2  N   LEU A   1     -32.899  -6.713  31.854  0.00  0.00    -0.239 NA
ATOM      3  H   LEU A   1     -32.341  -6.179  32.551  0.00  0.00    +0.142 HD
ENDBRANCH   1   2
BRANCH   1   4
ATOM      4  C   LEU A   1     -31.899  -7.640  29.736  0.00  0.00    +0.224 C 
ATOM      5  O   LEU A   1     -31.972  -7.781  28.521  0.00  0.00    -0.287 OA
ENDBRANCH   1   4
BRANCH   1   6
ATOM      6  CB  LEU A   1     -31.900  -5.200  30.210  0.00  0.00    +0.025 C 
BRANCH   6   7
ATOM      7  CG  LEU A   1     -32.685  -3.928  30.514  0.00  0.00    +0.002 C 
ATOM      8  CD2 LEU A   1     -31.785  -2.729  30.385  0.00  0.00    +0.000 C 
ATOM      9  CD1 LEU A   1     -33.864  -3.790  29.561  0.00  0.00    +0.000 C 
ENDBRANCH   6   7
ENDBRANCH   1   6
TORSDOF 4
REMARK  Name = ../refined-set-2016/4u0w/4u0w_pocket.pdb
REMARK  261 active torsions:
REMARK  status: ('A' for Active; 'I' for Inactive)
REMARK    1  A    between atoms: _1  and  _3
REMARK    2  A    between atoms: _3  and  _4
REMARK    3  A    between atoms: _3  and  _6
REMARK    4  A    between atoms: _6  and  _7
REMARK    5  A    between atoms: _7  and  _8
REMARK    6  A    between atoms: _13  and  _15
REMARK    7  A    between atoms: _15  and  _16
REMARK    8  A    between atoms: _15  and  _18
REMARK    9  A    between atoms: _18  and  _19
REMARK   10  A    between atoms: _22  and  _24
REMARK   11  A    between atoms: _24  and  _25
REMARK   12  A    between atoms: _24  and  _27
REMARK   13  A    between atoms: _27  and  _28
REMARK   14  A    between atoms: _31  and  _33
REMARK   15  A    between atoms: _33  and  _34
REMARK   16  A    between atoms: _33  and  _36
REMARK   17  A    between atoms: _36  and  _37
REMARK   18  A    between atoms: _40  and  _42
REMARK   19  A    between atoms: _42  and  _43
REMARK   20  A    between atoms: _42  and  _45
REMARK   21  A    between atoms: _45  and  _46
REMARK   22  A    between atoms: _48  and  _50
REMARK   23  A    between atoms: _50  and  _51
REMARK   24  A    between atoms: _50  and  _53
REMARK   25  A    between atoms: _53  and  _54
REMARK   26  A    between atoms: _60  and  _62
REMARK   27  A    between atoms: _62  and  _63
REMARK   28  A    between atoms: _62  and  _65
REMARK   29  A    between atoms: _65  and  _66
REMARK   30  A    between atoms: _69  and  _71
REMARK   31  A    between atoms: _71  and  _72
REMARK   32  A    between atoms: _71  and  _74
REMARK   33  A    between atoms: _74  and  _75
REMARK   34  A    between atoms: _75  and  _76
REMARK   35  A    between atoms: _79  and  _81
REMARK   36  A    between atoms: _81  and  _82
REMARK   37  A    between atoms: _81  and  _84
REMARK   38  A    between atoms: _84  and  _85
REMARK   39  A    between atoms: _88  and  _90
REMARK   40  A    between atoms: _90  and  _91
REMARK   41  A    between atoms: _90  and  _93
REMARK   42  A    between atoms: _93  and  _94
REMARK   43  A    between atoms: _94  and  _95
REMARK   44  A    between atoms: _97  and  _99
REMARK   45  A    between atoms: _99  and  _100
REMARK   46  A    between atoms: _99  and  _102
REMARK   47  A    between atoms: _102  and  _103
REMARK   48  A    between atoms: _103  and  _104
REMARK   49  A    between atoms: _104  and  _105
REMARK   50  A    between atoms: _105  and  _106
REMARK   51  A    between atoms: _111  and  _112
REMARK   52  A    between atoms: _117  and  _119
REMARK   53  A    between atoms: _119  and  _120
REMARK   54  A    between atoms: _122  and  _124
REMARK   55  A    between atoms: _124  and  _125
REMARK   56  A    between atoms: _124  and  _127
REMARK   57  A    between atoms: _127  and  _128
REMARK   58  A    between atoms: _130  and  _132
REMARK   59  A    between atoms: _132  and  _133
REMARK   60  A    between atoms: _132  and  _135
REMARK   61  A    between atoms: _135  and  _136
REMARK   62  A    between atoms: _139  and  _141
REMARK   63  A    between atoms: _141  and  _142
REMARK   64  A    between atoms: _141  and  _144
REMARK   65  A    between atoms: _144  and  _145
REMARK   66  A    between atoms: _145  and  _146
REMARK   67  A    between atoms: _146  and  _147
REMARK   68  A    between atoms: _156  and  _158
REMARK   69  A    between atoms: _158  and  _159
REMARK   70  A    between atoms: _158  and  _161
REMARK   71  A    between atoms: _161  and  _162
REMARK   72  A    between atoms: _162  and  _163
REMARK   73  A    between atoms: _163  and  _164
REMARK   74  A    between atoms: _173  and  _175
REMARK   75  A    between atoms: _175  and  _176
REMARK   76  A    between atoms: _179  and  _181
REMARK   77  A    between atoms: _181  and  _182
REMARK   78  A    between atoms: _181  and  _184
REMARK   79  A    between atoms: _184  and  _185
REMARK   80  A    between atoms: _188  and  _190
REMARK   81  A    between atoms: _190  and  _191
REMARK   82  A    between atoms: _190  and  _193
REMARK   83  A    between atoms: _193  and  _194
REMARK   84  A    between atoms: _194  and  _195
REMARK   85  A    between atoms: _198  and  _200
REMARK   86  A    between atoms: _200  and  _201
REMARK   87  A    between atoms: _200  and  _203
REMARK   88  A    between atoms: _203  and  _204
REMARK   89  A    between atoms: _206  and  _208
REMARK   90  A    between atoms: _208  and  _209
REMARK   91  A    between atoms: _208  and  _211
REMARK   92  A    between atoms: _211  and  _212
REMARK   93  A    between atoms: _214  and  _216
REMARK   94  A    between atoms: _216  and  _217
REMARK   95  A    between atoms: _216  and  _219
REMARK   96  A    between atoms: _219  and  _220
REMARK   97  A    between atoms: _225  and  _227
REMARK   98  A    between atoms: _227  and  _228
REMARK   99  A    between atoms: _227  and  _230
REMARK  100  A    between atoms: _230  and  _231
REMARK  101  A    between atoms: _234  and  _236
REMARK  102  A    between atoms: _236  and  _237
REMARK  103  A    between atoms: _236  and  _239
REMARK  104  A    between atoms: _239  and  _240
REMARK  105  A    between atoms: _245  and  _247
REMARK  106  A    between atoms: _247  and  _248
REMARK  107  A    between atoms: _247  and  _250
REMARK  108  A    between atoms: _250  and  _251
REMARK  109  A    between atoms: _257  and  _259
REMARK  110  A    between atoms: _259  and  _260
REMARK  111  A    between atoms: _259  and  _262
REMARK  112  A    between atoms: _262  and  _263
REMARK  113  A    between atoms: _263  and  _264
REMARK  114  A    between atoms: _269  and  _271
REMARK  115  A    between atoms: _271  and  _272
REMARK  116  A    between atoms: _271  and  _274
REMARK  117  A    between atoms: _274  and  _275
REMARK  118  A    between atoms: _277  and  _279
REMARK  119  A    between atoms: _279  and  _280
REMARK  120  A    between atoms: _279  and  _282
REMARK  121  A    between atoms: _282  and  _283
REMARK  122  A    between atoms: _285  and  _287
REMARK  123  A    between atoms: _287  and  _288
REMARK  124  A    between atoms: _287  and  _290
REMARK  125  A    between atoms: _290  and  _291
REMARK  126  A    between atoms: _294  and  _296
REMARK  127  A    between atoms: _296  and  _297
REMARK  128  A    between atoms: _296  and  _299
REMARK  129  A    between atoms: _299  and  _300
REMARK  130  A    between atoms: _305  and  _306
REMARK  131  A    between atoms: _308  and  _310
REMARK  132  A    between atoms: _310  and  _311
REMARK  133  A    between atoms: _310  and  _313
REMARK  134  A    between atoms: _313  and  _314
REMARK  135  A    between atoms: _317  and  _319
REMARK  136  A    between atoms: _319  and  _320
REMARK  137  A    between atoms: _319  and  _322
REMARK  138  A    between atoms: _322  and  _323
REMARK  139  A    between atoms: _328  and  _330
REMARK  140  A    between atoms: _330  and  _331
REMARK  141  A    between atoms: _330  and  _333
REMARK  142  A    between atoms: _333  and  _334
REMARK  143  A    between atoms: _337  and  _339
REMARK  144  A    between atoms: _339  and  _340
REMARK  145  A    between atoms: _339  and  _342
REMARK  146  A    between atoms: _342  and  _343
REMARK  147  A    between atoms: _343  and  _344
REMARK  148  A    between atoms: _347  and  _349
REMARK  149  A    between atoms: _349  and  _350
REMARK  150  A    between atoms: _349  and  _352
REMARK  151  A    between atoms: _352  and  _353
REMARK  152  A    between atoms: _356  and  _358
REMARK  153  A    between atoms: _358  and  _359
REMARK  154  A    between atoms: _362  and  _364
REMARK  155  A    between atoms: _364  and  _365
REMARK  156  A    between atoms: _364  and  _367
REMARK  157  A    between atoms: _367  and  _368
REMARK  158  A    between atoms: _368  and  _369
REMARK  159  A    between atoms: _369  and  _370
REMARK  160  A    between atoms: _370  and  _371
REMARK  161  A    between atoms: _375  and  _377
REMARK  162  A    between atoms: _377  and  _378
REMARK  163  A    between atoms: _377  and  _380
REMARK  164  A    between atoms: _380  and  _381
REMARK  165  A    between atoms: _381  and  _382
REMARK  166  A    between atoms: _387  and  _389
REMARK  167  A    between atoms: _389  and  _390
REMARK  168  A    between atoms: _389  and  _392
REMARK  169  A    between atoms: _392  and  _393
REMARK  170  A    between atoms: _393  and  _394
REMARK  171  A    between atoms: _397  and  _399
REMARK  172  A    between atoms: _399  and  _400
REMARK  173  A    between atoms: _399  and  _402
REMARK  174  A    between atoms: _402  and  _403
REMARK  175  A    between atoms: _406  and  _408
REMARK  176  A    between atoms: _408  and  _409
REMARK  177  A    between atoms: _408  and  _411
REMARK  178  A    between atoms: _411  and  _412
REMARK  179  A    between atoms: _415  and  _417
REMARK  180  A    between atoms: _417  and  _418
REMARK  181  A    between atoms: _417  and  _420
REMARK  182  A    between atoms: _420  and  _421
REMARK  183  A    between atoms: _424  and  _426
REMARK  184  A    between atoms: _426  and  _427
REMARK  185  A    between atoms: _426  and  _429
REMARK  186  A    between atoms: _429  and  _430
REMARK  187  A    between atoms: _433  and  _435
REMARK  188  A    between atoms: _435  and  _436
REMARK  189  A    between atoms: _435  and  _438
REMARK  190  A    between atoms: _438  and  _439
REMARK  191  A    between atoms: _439  and  _440
REMARK  192  A    between atoms: _440  and  _441
REMARK  193  A    between atoms: _441  and  _442
REMARK  194  A    between atoms: _446  and  _448
REMARK  195  A    between atoms: _448  and  _449
REMARK  196  A    between atoms: _448  and  _451
REMARK  197  A    between atoms: _451  and  _452
REMARK  198  A    between atoms: _452  and  _453
REMARK  199  A    between atoms: _453  and  _454
REMARK  200  A    between atoms: _463  and  _465
REMARK  201  A    between atoms: _465  and  _466
REMARK  202  A    between atoms: _465  and  _468
REMARK  203  A    between atoms: _468  and  _469
REMARK  204  A    between atoms: _472  and  _474
REMARK  205  A    between atoms: _474  and  _475
REMARK  206  A    between atoms: _474  and  _477
REMARK  207  A    between atoms: _477  and  _478
REMARK  208  A    between atoms: _481  and  _483
REMARK  209  A    between atoms: _483  and  _484
REMARK  210  A    between atoms: _483  and  _486
REMARK  211  A    between atoms: _486  and  _487
REMARK  212  A    between atoms: _493  and  _495
REMARK  213  A    between atoms: _495  and  _496
REMARK  214  A    between atoms: _495  and  _498
REMARK  215  A    between atoms: _498  and  _499
REMARK  216  A    between atoms: _499  and  _500
REMARK  217  A    between atoms: _503  and  _505
REMARK  218  A    between atoms: _505  and  _506
REMARK  219  A    between atoms: _505  and  _508
REMARK  220  A    between atoms: _508  and  _509
REMARK  221  A    between atoms: _514  and  _516
REMARK  222  A    between atoms: _516  and  _517
REMARK  223  A    between atoms: _520  and  _522
REMARK  224  A    between atoms: _522  and  _523
REMARK  225  A    between atoms: _522  and  _525
REMARK  226  A    between atoms: _525  and  _526
REMARK  227  A    between atoms: _526  and  _527
REMARK  228  A    between atoms: _527  and  _528
REMARK  229  A    between atoms: _528  and  _529
REMARK  230  A    between atoms: _533  and  _535
REMARK  231  A    between atoms: _535  and  _536
REMARK  232  A    between atoms: _535  and  _538
REMARK  233  A    between atoms: _538  and  _539
REMARK  234  A    between atoms: _541  and  _543
REMARK  235  A    between atoms: _543  and  _544
REMARK  236  A    between atoms: _543  and  _546
REMARK  237  A    between atoms: _549  and  _551
REMARK  238  A    between atoms: _551  and  _552
REMARK  239  A    between atoms: _551  and  _554
REMARK  240  A    between atoms: _554  and  _555
REMARK  241  A    between atoms: _560  and  _561
REMARK  242  A    between atoms: _563  and  _565
REMARK  243  A    between atoms: _565  and  _566
REMARK  244  A    between atoms: _565  and  _568
REMARK  245  A    between atoms: _568  and  _569
REMARK  246  A    between atoms: _574  and  _575
REMARK  247  A    between atoms: _577  and  _579
REMARK  248  A    between atoms: _579  and  _580
REMARK  249  A    between atoms: _579  and  _582
REMARK  250  A    between atoms: _582  and  _583
REMARK  251  A    between atoms: _589  and  _591
REMARK  252  A    between atoms: _591  and  _592
REMARK  253  A    between atoms: _591  and  _594
REMARK  254  A    between atoms: _594  and  _595
REMARK  255  A    between atoms: _595  and  _596
REMARK  256  A    between atoms: _598  and  _600
REMARK  257  A    between atoms: _600  and  _601
REMARK  258  A    between atoms: _600  and  _603
REMARK  259  A    between atoms: _603  and  _604
REMARK  260  A    between atoms: _604  and  _605
REMARK  261  A    between atoms: _605  and  _606
REMARK                            x       y       z     vdW  Elec       q    Type
REMARK                         _______ _______ _______ _____ _____    ______ ____
ROOT
ATOM      1  CA  THR A   5     -46.426 -13.136  29.723  0.00  0.00    +0.176 C 
ENDROOT
BRANCH   1   4
ATOM      2  C   PHE A   4     -45.138 -11.060  29.587  0.00  0.00    +0.241 C 
ATOM      3  O   PHE A   4     -45.169 -10.879  30.803  0.00  0.00    -0.273 OA
ATOM      4  N   THR A   5     -45.702 -12.106  28.988  0.00  0.00    -0.295 N 
ATOM      5  H   THR A   5     -45.623 -12.192  27.955  0.00  0.00    +0.150 HD
BRANCH   2   6
ATOM      6  CA  PHE A   4     -44.423 -10.070  28.667  0.00  0.00    +0.153 C 
BRANCH   6   9
ATOM      7  C   SER A   3     -42.695 -11.668  28.068  0.00  0.00    +0.243 C 
ATOM      8  O   SER A   3     -42.368 -11.855  29.253  0.00  0.00    -0.273 OA
ATOM      9  N   PHE A   4     -43.627 -10.800  27.694  0.00  0.00    -0.297 N 
ATOM     10  H   PHE A   4     -43.792 -10.638  26.680  0.00  0.00    +0.150 HD
BRANCH   7  11
ATOM     11  CA  SER A   3     -42.057 -12.468  26.957  0.00  0.00    +0.178 C 
BRANCH  11  13
ATOM     12  C   THR A   2     -39.648 -12.471  27.324  0.00  0.00    +0.243 C 
ATOM     13  N   SER A   3     -40.823 -13.081  27.417  0.00  0.00    -0.295 N 
ATOM     14  H   SER A   3     -40.862 -14.033  27.834  0.00  0.00    +0.150 HD
ATOM     15  O   THR A   2     -39.485 -11.398  26.739  0.00  0.00    -0.273 OA
BRANCH  12  16
ATOM     16  CA  THR A   2     -38.490 -13.169  28.016  0.00  0.00    +0.176 C 
BRANCH  16  18
ATOM     17  C   LEU A   1     -36.195 -13.501  27.271  0.00  0.00    +0.238 C 
ATOM     18  N   THR A   2     -37.209 -12.682  27.513  0.00  0.00    -0.295 N 
ATOM     19  H   THR A   2     -37.088 -11.664  27.340  0.00  0.00    +0.150 HD
ATOM     20  O   LEU A   1     -36.273 -14.722  27.429  0.00  0.00    -0.274 OA
BRANCH  17  21
ATOM     21  CA  LEU A   1     -34.894 -12.841  26.790  0.00  0.00    +0.145 C 
BRANCH  21  22
ATOM     22  N   LEU A   1     -33.879 -12.877  27.835  0.00  0.00    -0.238 NA
ATOM     23  H   LEU A   1     -33.065 -13.516  27.731  0.00  0.00    +0.142 HD
ENDBRANCH  21  22
BRANCH  21  24
ATOM     24  CB  LEU A   1     -34.374 -13.528  25.526  0.00  0.00    +0.026 C 
BRANCH  24  25
ATOM     25  CG  LEU A   1     -35.375 -13.596  24.367  0.00  0.00    +0.002 C 
ATOM     26  CD2 LEU A   1     -36.033 -12.244  24.153  0.00  0.00    +0.000 C 
ATOM     27  CD1 LEU A   1     -34.679 -14.072  23.092  0.00  0.00    +0.000 C 
ENDBRANCH  24  25
ENDBRANCH  21  24
ENDBRANCH  17  21
ENDBRANCH  16  18
BRANCH  16  28
ATOM     28  CB  THR A   2     -38.650 -12.940  29.544  0.00  0.00    +0.137 C 
ATOM     29  CG2 THR A   2     -37.578 -13.689  30.356  0.00  0.00    +0.034 C 
BRANCH  28  30
ATOM     30  OG1 THR A   2     -38.572 -11.535  29.815  0.00  0.00    -0.382 OA
ATOM     31  HG1 THR A   2     -38.673 -11.382  30.788  0.00  0.00    +0.210 HD
ENDBRANCH  28  30
ENDBRANCH  16  28
ENDBRANCH  12  16
ENDBRANCH  11  13
BRANCH  11  32
ATOM     32  CB  SER A   3     -43.041 -13.541  26.467  0.00  0.00    +0.166 C 
BRANCH  32  33
ATOM     33  OG  SER A   3     -43.502 -14.347  27.552  0.00  0.00    -0.380 OA
ATOM     34  H   SER A   3     -44.133 -15.029  27.210  0.00  0.00    +0.211 HD
ENDBRANCH  32  33
ENDBRANCH  11  32
ENDBRANCH   7  11
ENDBRANCH   6   9
BRANCH   6  35
ATOM     35  CB  PHE A   4     -45.436  -9.153  27.977  0.00  0.00    +0.055 C 
BRANCH  35  36
ATOM     36  CG  PHE A   4     -46.225  -8.280  28.935  0.00  0.00    -0.020 A 
ATOM     37  CD2 PHE A   4     -45.695  -7.085  29.409  0.00  0.00    -0.004 A 
ATOM     38  CE2 PHE A   4     -46.420  -6.273  30.294  0.00  0.00    -0.000 A 
ATOM     39  CZ  PHE A   4     -47.682  -6.660  30.703  0.00  0.00    -0.000 A 
ATOM     40  CE1 PHE A   4     -48.222  -7.854  30.233  0.00  0.00    -0.000 A 
ATOM     41  CD1 PHE A   4     -47.490  -8.659  29.359  0.00  0.00    -0.004 A 
ENDBRANCH  35  36
ENDBRANCH   6  35
ENDBRANCH   2   6
ENDBRANCH   1   4
BRANCH   1  42
ATOM     42  C   THR A   5     -45.544 -13.770  30.787  0.00  0.00    +0.243 C 
ATOM     43  O   THR A   5     -45.931 -13.835  31.945  0.00  0.00    -0.273 OA
ATOM     44  N   GLU A   6     -44.352 -14.208  30.385  0.00  0.00    -0.297 N 
ATOM     45  H   GLU A   6     -44.118 -14.165  29.373  0.00  0.00    +0.150 HD
BRANCH  44  46
ATOM     46  CA  GLU A   6     -43.362 -14.746  31.314  0.00  0.00    +0.149 C 
BRANCH  46  47
ATOM     47  C   GLU A   6     -43.016 -13.741  32.433  0.00  0.00    +0.241 C 
ATOM     48  O   GLU A   6     -42.956 -14.123  33.609  0.00  0.00    -0.273 OA
ATOM     49  N   ASP A   7     -42.813 -12.467  32.072  0.00  0.00    -0.297 N 
ATOM     50  H   ASP A   7     -42.886 -12.212  31.066  0.00  0.00    +0.150 HD
BRANCH  49  51
ATOM     51  CA  ASP A   7     -42.490 -11.416  33.050  0.00  0.00    +0.160 C 
BRANCH  51  52
ATOM     52  C   ASP A   7     -43.538 -11.311  34.160  0.00  0.00    +0.241 C 
ATOM     53  O   ASP A   7     -43.209 -11.290  35.349  0.00  0.00    -0.273 OA
ATOM     54  N   MET A   8     -44.801 -11.235  33.765  0.00  0.00    -0.297 N 
ATOM     55  H   MET A   8     -45.022 -11.296  32.751  0.00  0.00    +0.150 HD
BRANCH  54  56
ATOM     56  CA  MET A   8     -45.884 -11.068  34.723  0.00  0.00    +0.149 C 
BRANCH  56  57
ATOM     57  C   MET A   8     -46.076 -12.286  35.627  0.00  0.00    +0.241 C 
ATOM     58  O   MET A   8     -46.256 -12.148  36.844  0.00  0.00    -0.273 OA
ATOM     59  N   LYS A   9     -46.033 -13.470  35.024  0.00  0.00    -0.298 N 
ATOM     60  H   LYS A   9     -45.886 -13.508  33.995  0.00  0.00    +0.150 HD
BRANCH  59  61
ATOM     61  CA  LYS A   9     -46.186 -14.717  35.764  0.00  0.00    +0.137 C 
BRANCH  61  62
ATOM     62  C   LYS A   9     -45.121 -14.846  36.847  0.00  0.00    +0.227 C 
ATOM     63  O   LYS A   9     -45.428 -15.184  37.988  0.00  0.00    -0.286 OA
ENDBRANCH  61  62
BRANCH  61  64
ATOM     64  CB  LYS A   9     -46.125 -15.914  34.815  0.00  0.00    +0.028 C 
BRANCH  64  65
ATOM     65  CG  LYS A   9     -47.429 -16.167  34.069  0.00  0.00    -0.000 C 
BRANCH  65  66
ATOM     66  CD  LYS A   9     -47.280 -17.334  33.111  0.00  0.00    -0.024 C 
BRANCH  66  67
ATOM     67  CE  LYS A   9     -48.603 -17.723  32.488  0.00  0.00    -0.086 C 
BRANCH  67  68
ATOM     68  NZ  LYS A   9     -48.382 -18.773  31.453  0.00  0.00    +0.380 N 
ATOM     69  HZ1 LYS A   9     -47.950 -19.609  31.896  0.00  0.00    -0.089 HD
ATOM     70  HZ2 LYS A   9     -49.294 -19.037  31.028  0.00  0.00    -0.089 HD
ATOM     71  HZ3 LYS A   9     -47.749 -18.403  30.716  0.00  0.00    -0.089 HD
ENDBRANCH  67  68
ENDBRANCH  66  67
ENDBRANCH  65  66
ENDBRANCH  64  65
ENDBRANCH  61  64
ENDBRANCH  59  61
ENDBRANCH  56  57
BRANCH  56  72
ATOM     72  CB  MET A   8     -47.178 -10.751  33.979  0.00  0.00    +0.041 C 
BRANCH  72  73
ATOM     73  CG  MET A   8     -47.140  -9.408  33.271  0.00  0.00    +0.060 C 
BRANCH  73  74
ATOM     74  SD  MET A   8     -46.924  -8.002  34.375  0.00  0.00    -0.139 S 
ATOM     75  CE  MET A   8     -45.176  -7.720  34.346  0.00  0.00    +0.069 C 
ENDBRANCH  73  74
ENDBRANCH  72  73
ENDBRANCH  56  72
ENDBRANCH  54  56
ENDBRANCH  51  52
BRANCH  51  76
ATOM     76  CB  ASP A   7     -42.361 -10.042  32.382  0.00  0.00    +0.143 C 
BRANCH  76  77
ATOM     77  CG  ASP A   7     -41.153  -9.934  31.467  0.00  0.00    +0.367 C 
ATOM     78  OD2 ASP A   7     -40.192 -10.718  31.609  0.00  0.00    -0.246 OA
ATOM     79  OD1 ASP A   7     -41.157  -9.028  30.612  0.00  0.00    -0.246 OA
ENDBRANCH  76  77
ENDBRANCH  51  76
ENDBRANCH  49  51
ENDBRANCH  46  47
BRANCH  46  80
ATOM     80  CB  GLU A   6     -42.096 -15.173  30.552  0.00  0.00    +0.041 C 
BRANCH  80  81
ATOM     81  CG  GLU A   6     -42.282 -16.444  29.703  0.00  0.00    +0.116 C 
BRANCH  81  82
ATOM     82  CD  GLU A   6     -41.134 -16.708  28.733  0.00  0.00    +0.365 C 
ATOM     83  OE2 GLU A   6     -40.393 -15.758  28.403  0.00  0.00    -0.246 OA
ATOM     84  OE1 GLU A   6     -40.979 -17.871  28.282  0.00  0.00    -0.246 OA
ENDBRANCH  81  82
ENDBRANCH  80  81
ENDBRANCH  46  80
ENDBRANCH  44  46
ENDBRANCH   1  42
BRANCH   1  85
ATOM     85  CB  THR A   5     -46.965 -14.216  28.769  0.00  0.00    +0.137 C 
ATOM     86  CG2 THR A   5     -47.627 -15.358  29.534  0.00  0.00    +0.034 C 
BRANCH  85  87
ATOM     87  OG1 THR A   5     -47.943 -13.622  27.917  0.00  0.00    -0.382 OA
ATOM     88  HG1 THR A   5     -47.525 -12.890  27.397  0.00  0.00    +0.210 HD
ENDBRANCH  85  87
ENDBRANCH   1  85
TORSDOF 41
REMARK  Name = ../refined-set-2016/4u0w/4u0w_pocket.pdb
REMARK  261 active torsions:
REMARK  status: ('A' for Active; 'I' for Inactive)
REMARK    1  A    between atoms: _1  and  _3
REMARK    2  A    between atoms: _3  and  _4
REMARK    3  A    between atoms: _3  and  _6
REMARK    4  A    between atoms: _6  and  _7
REMARK    5  A    between atoms: _7  and  _8
REMARK    6  A    between atoms: _13  and  _15
REMARK    7  A    between atoms: _15  and  _16
REMARK    8  A    between atoms: _15  and  _18
REMARK    9  A    between atoms: _18  and  _19
REMARK   10  A    between atoms: _22  and  _24
REMARK   11  A    between atoms: _24  and  _25
REMARK   12  A    between atoms: _24  and  _27
REMARK   13  A    between atoms: _27  and  _28
REMARK   14  A    between atoms: _31  and  _33
REMARK   15  A    between atoms: _33  and  _34
REMARK   16  A    between atoms: _33  and  _36
REMARK   17  A    between atoms: _36  and  _37
REMARK   18  A    between atoms: _40  and  _42
REMARK   19  A    between atoms: _42  and  _43
REMARK   20  A    between atoms: _42  and  _45
REMARK   21  A    between atoms: _45  and  _46
REMARK   22  A    between atoms: _48  and  _50
REMARK   23  A    between atoms: _50  and  _51
REMARK   24  A    between atoms: _50  and  _53
REMARK   25  A    between atoms: _53  and  _54
REMARK   26  A    between atoms: _60  and  _62
REMARK   27  A    between atoms: _62  and  _63
REMARK   28  A    between atoms: _62  and  _65
REMARK   29  A    between atoms: _65  and  _66
REMARK   30  A    between atoms: _69  and  _71
REMARK   31  A    between atoms: _71  and  _72
REMARK   32  A    between atoms: _71  and  _74
REMARK   33  A    between atoms: _74  and  _75
REMARK   34  A    between atoms: _75  and  _76
REMARK   35  A    between atoms: _79  and  _81
REMARK   36  A    between atoms: _81  and  _82
REMARK   37  A    between atoms: _81  and  _84
REMARK   38  A    between atoms: _84  and  _85
REMARK   39  A    between atoms: _88  and  _90
REMARK   40  A    between atoms: _90  and  _91
REMARK   41  A    between atoms: _90  and  _93
REMARK   42  A    between atoms: _93  and  _94
REMARK   43  A    between atoms: _94  and  _95
REMARK   44  A    between atoms: _97  and  _99
REMARK   45  A    between atoms: _99  and  _100
REMARK   46  A    between atoms: _99  and  _102
REMARK   47  A    between atoms: _102  and  _103
REMARK   48  A    between atoms: _103  and  _104
REMARK   49  A    between atoms: _104  and  _105
REMARK   50  A    between atoms: _105  and  _106
REMARK   51  A    between atoms: _111  and  _112
REMARK   52  A    between atoms: _117  and  _119
REMARK   53  A    between atoms: _119  and  _120
REMARK   54  A    between atoms: _122  and  _124
REMARK   55  A    between atoms: _124  and  _125
REMARK   56  A    between atoms: _124  and  _127
REMARK   57  A    between atoms: _127  and  _128
REMARK   58  A    between atoms: _130  and  _132
REMARK   59  A    between atoms: _132  and  _133
REMARK   60  A    between atoms: _132  and  _135
REMARK   61  A    between atoms: _135  and  _136
REMARK   62  A    between atoms: _139  and  _141
REMARK   63  A    between atoms: _141  and  _142
REMARK   64  A    between atoms: _141  and  _144
REMARK   65  A    between atoms: _144  and  _145
REMARK   66  A    between atoms: _145  and  _146
REMARK   67  A    between atoms: _146  and  _147
REMARK   68  A    between atoms: _156  and  _158
REMARK   69  A    between atoms: _158  and  _159
REMARK   70  A    between atoms: _158  and  _161
REMARK   71  A    between atoms: _161  and  _162
REMARK   72  A    between atoms: _162  and  _163
REMARK   73  A    between atoms: _163  and  _164
REMARK   74  A    between atoms: _173  and  _175
REMARK   75  A    between atoms: _175  and  _176
REMARK   76  A    between atoms: _179  and  _181
REMARK   77  A    between atoms: _181  and  _182
REMARK   78  A    between atoms: _181  and  _184
REMARK   79  A    between atoms: _184  and  _185
REMARK   80  A    between atoms: _188  and  _190
REMARK   81  A    between atoms: _190  and  _191
REMARK   82  A    between atoms: _190  and  _193
REMARK   83  A    between atoms: _193  and  _194
REMARK   84  A    between atoms: _194  and  _195
REMARK   85  A    between atoms: _198  and  _200
REMARK   86  A    between atoms: _200  and  _201
REMARK   87  A    between atoms: _200  and  _203
REMARK   88  A    between atoms: _203  and  _204
REMARK   89  A    between atoms: _206  and  _208
REMARK   90  A    between atoms: _208  and  _209
REMARK   91  A    between atoms: _208  and  _211
REMARK   92  A    between atoms: _211  and  _212
REMARK   93  A    between atoms: _214  and  _216
REMARK   94  A    between atoms: _216  and  _217
REMARK   95  A    between atoms: _216  and  _219
REMARK   96  A    between atoms: _219  and  _220
REMARK   97  A    between atoms: _225  and  _227
REMARK   98  A    between atoms: _227  and  _228
REMARK   99  A    between atoms: _227  and  _230
REMARK  100  A    between atoms: _230  and  _231
REMARK  101  A    between atoms: _234  and  _236
REMARK  102  A    between atoms: _236  and  _237
REMARK  103  A    between atoms: _236  and  _239
REMARK  104  A    between atoms: _239  and  _240
REMARK  105  A    between atoms: _245  and  _247
REMARK  106  A    between atoms: _247  and  _248
REMARK  107  A    between atoms: _247  and  _250
REMARK  108  A    between atoms: _250  and  _251
REMARK  109  A    between atoms: _257  and  _259
REMARK  110  A    between atoms: _259  and  _260
REMARK  111  A    between atoms: _259  and  _262
REMARK  112  A    between atoms: _262  and  _263
REMARK  113  A    between atoms: _263  and  _264
REMARK  114  A    between atoms: _269  and  _271
REMARK  115  A    between atoms: _271  and  _272
REMARK  116  A    between atoms: _271  and  _274
REMARK  117  A    between atoms: _274  and  _275
REMARK  118  A    between atoms: _277  and  _279
REMARK  119  A    between atoms: _279  and  _280
REMARK  120  A    between atoms: _279  and  _282
REMARK  121  A    between atoms: _282  and  _283
REMARK  122  A    between atoms: _285  and  _287
REMARK  123  A    between atoms: _287  and  _288
REMARK  124  A    between atoms: _287  and  _290
REMARK  125  A    between atoms: _290  and  _291
REMARK  126  A    between atoms: _294  and  _296
REMARK  127  A    between atoms: _296  and  _297
REMARK  128  A    between atoms: _296  and  _299
REMARK  129  A    between atoms: _299  and  _300
REMARK  130  A    between atoms: _305  and  _306
REMARK  131  A    between atoms: _308  and  _310
REMARK  132  A    between atoms: _310  and  _311
REMARK  133  A    between atoms: _310  and  _313
REMARK  134  A    between atoms: _313  and  _314
REMARK  135  A    between atoms: _317  and  _319
REMARK  136  A    between atoms: _319  and  _320
REMARK  137  A    between atoms: _319  and  _322
REMARK  138  A    between atoms: _322  and  _323
REMARK  139  A    between atoms: _328  and  _330
REMARK  140  A    between atoms: _330  and  _331
REMARK  141  A    between atoms: _330  and  _333
REMARK  142  A    between atoms: _333  and  _334
REMARK  143  A    between atoms: _337  and  _339
REMARK  144  A    between atoms: _339  and  _340
REMARK  145  A    between atoms: _339  and  _342
REMARK  146  A    between atoms: _342  and  _343
REMARK  147  A    between atoms: _343  and  _344
REMARK  148  A    between atoms: _347  and  _349
REMARK  149  A    between atoms: _349  and  _350
REMARK  150  A    between atoms: _349  and  _352
REMARK  151  A    between atoms: _352  and  _353
REMARK  152  A    between atoms: _356  and  _358
REMARK  153  A    between atoms: _358  and  _359
REMARK  154  A    between atoms: _362  and  _364
REMARK  155  A    between atoms: _364  and  _365
REMARK  156  A    between atoms: _364  and  _367
REMARK  157  A    between atoms: _367  and  _368
REMARK  158  A    between atoms: _368  and  _369
REMARK  159  A    between atoms: _369  and  _370
REMARK  160  A    between atoms: _370  and  _371
REMARK  161  A    between atoms: _375  and  _377
REMARK  162  A    between atoms: _377  and  _378
REMARK  163  A    between atoms: _377  and  _380
REMARK  164  A    between atoms: _380  and  _381
REMARK  165  A    between atoms: _381  and  _382
REMARK  166  A    between atoms: _387  and  _389
REMARK  167  A    between atoms: _389  and  _390
REMARK  168  A    between atoms: _389  and  _392
REMARK  169  A    between atoms: _392  and  _393
REMARK  170  A    between atoms: _393  and  _394
REMARK  171  A    between atoms: _397  and  _399
REMARK  172  A    between atoms: _399  and  _400
REMARK  173  A    between atoms: _399  and  _402
REMARK  174  A    between atoms: _402  and  _403
REMARK  175  A    between atoms: _406  and  _408
REMARK  176  A    between atoms: _408  and  _409
REMARK  177  A    between atoms: _408  and  _411
REMARK  178  A    between atoms: _411  and  _412
REMARK  179  A    between atoms: _415  and  _417
REMARK  180  A    between atoms: _417  and  _418
REMARK  181  A    between atoms: _417  and  _420
REMARK  182  A    between atoms: _420  and  _421
REMARK  183  A    between atoms: _424  and  _426
REMARK  184  A    between atoms: _426  and  _427
REMARK  185  A    between atoms: _426  and  _429
REMARK  186  A    between atoms: _429  and  _430
REMARK  187  A    between atoms: _433  and  _435
REMARK  188  A    between atoms: _435  and  _436
REMARK  189  A    between atoms: _435  and  _438
REMARK  190  A    between atoms: _438  and  _439
REMARK  191  A    between atoms: _439  and  _440
REMARK  192  A    between atoms: _440  and  _441
REMARK  193  A    between atoms: _441  and  _442
REMARK  194  A    between atoms: _446  and  _448
REMARK  195  A    between atoms: _448  and  _449
REMARK  196  A    between atoms: _448  and  _451
REMARK  197  A    between atoms: _451  and  _452
REMARK  198  A    between atoms: _452  and  _453
REMARK  199  A    between atoms: _453  and  _454
REMARK  200  A    between atoms: _463  and  _465
REMARK  201  A    between atoms: _465  and  _466
REMARK  202  A    between atoms: _465  and  _468
REMARK  203  A    between atoms: _468  and  _469
REMARK  204  A    between atoms: _472  and  _474
REMARK  205  A    between atoms: _474  and  _475
REMARK  206  A    between atoms: _474  and  _477
REMARK  207  A    between atoms: _477  and  _478
REMARK  208  A    between atoms: _481  and  _483
REMARK  209  A    between atoms: _483  and  _484
REMARK  210  A    between atoms: _483  and  _486
REMARK  211  A    between atoms: _486  and  _487
REMARK  212  A    between atoms: _493  and  _495
REMARK  213  A    between atoms: _495  and  _496
REMARK  214  A    between atoms: _495  and  _498
REMARK  215  A    between atoms: _498  and  _499
REMARK  216  A    between atoms: _499  and  _500
REMARK  217  A    between atoms: _503  and  _505
REMARK  218  A    between atoms: _505  and  _506
REMARK  219  A    between atoms: _505  and  _508
REMARK  220  A    between atoms: _508  and  _509
REMARK  221  A    between atoms: _514  and  _516
REMARK  222  A    between atoms: _516  and  _517
REMARK  223  A    between atoms: _520  and  _522
REMARK  224  A    between atoms: _522  and  _523
REMARK  225  A    between atoms: _522  and  _525
REMARK  226  A    between atoms: _525  and  _526
REMARK  227  A    between atoms: _526  and  _527
REMARK  228  A    between atoms: _527  and  _528
REMARK  229  A    between atoms: _528  and  _529
REMARK  230  A    between atoms: _533  and  _535
REMARK  231  A    between atoms: _535  and  _536
REMARK  232  A    between atoms: _535  and  _538
REMARK  233  A    between atoms: _538  and  _539
REMARK  234  A    between atoms: _541  and  _543
REMARK  235  A    between atoms: _543  and  _544
REMARK  236  A    between atoms: _543  and  _546
REMARK  237  A    between atoms: _549  and  _551
REMARK  238  A    between atoms: _551  and  _552
REMARK  239  A    between atoms: _551  and  _554
REMARK  240  A    between atoms: _554  and  _555
REMARK  241  A    between atoms: _560  and  _561
REMARK  242  A    between atoms: _563  and  _565
REMARK  243  A    between atoms: _565  and  _566
REMARK  244  A    between atoms: _565  and  _568
REMARK  245  A    between atoms: _568  and  _569
REMARK  246  A    between atoms: _574  and  _575
REMARK  247  A    between atoms: _577  and  _579
REMARK  248  A    between atoms: _579  and  _580
REMARK  249  A    between atoms: _579  and  _582
REMARK  250  A    between atoms: _582  and  _583
REMARK  251  A    between atoms: _589  and  _591
REMARK  252  A    between atoms: _591  and  _592
REMARK  253  A    between atoms: _591  and  _594
REMARK  254  A    between atoms: _594  and  _595
REMARK  255  A    between atoms: _595  and  _596
REMARK  256  A    between atoms: _598  and  _600
REMARK  257  A    between atoms: _600  and  _601
REMARK  258  A    between atoms: _600  and  _603
REMARK  259  A    between atoms: _603  and  _604
REMARK  260  A    between atoms: _604  and  _605
REMARK  261  A    between atoms: _605  and  _606
REMARK                            x       y       z     vdW  Elec       q    Type
REMARK                         _______ _______ _______ _____ _____    ______ ____
ROOT
ATOM      1  CA  GLY A   2     -53.441  -9.255  29.687  0.00  0.00    +0.176 C 
ENDROOT
BRANCH   1   4
ATOM      2  C   PRO A   1     -52.129 -10.584  31.238  0.00  0.00    +0.239 C 
ATOM      3  O   PRO A   1     -52.937 -11.512  31.228  0.00  0.00    -0.274 OA
ATOM      4  N   GLY A   2     -52.325  -9.439  30.595  0.00  0.00    -0.296 N 
ATOM      5  H   GLY A   2     -51.661  -8.653  30.746  0.00  0.00    +0.150 HD
BRANCH   2  10
ATOM      6  N   PRO A   1     -51.070 -11.462  33.285  0.00  0.00    -0.210 NA
ATOM      7  CD  PRO A   1     -50.574 -12.847  33.188  0.00  0.00    +0.089 C 
ATOM      8  CG  PRO A   1     -50.049 -12.936  31.752  0.00  0.00    +0.021 C 
ATOM      9  CB  PRO A   1     -49.795 -11.533  31.305  0.00  0.00    +0.028 C 
ATOM     10  CA  PRO A   1     -50.850 -10.703  32.046  0.00  0.00    +0.149 C 
ENDBRANCH   2  10
ENDBRANCH   1   4
BRANCH   1  11
ATOM     11  C   GLY A   2     -53.026  -8.443  28.480  0.00  0.00    +0.243 C 
ATOM     12  O   GLY A   2     -51.935  -7.864  28.459  0.00  0.00    -0.273 OA
ATOM     13  N   SER A   3     -53.882  -8.423  27.462  0.00  0.00    -0.296 N 
ATOM     14  H   SER A   3     -54.715  -9.045  27.492  0.00  0.00    +0.150 HD
BRANCH  13  15
ATOM     15  CA  SER A   3     -53.689  -7.557  26.305  0.00  0.00    +0.166 C 
BRANCH  15  16
ATOM     16  CB  SER A   3     -55.010  -6.934  25.864  0.00  0.00    +0.229 C 
ATOM     17  OG  SER A   3     -56.084  -7.517  26.026  0.00  0.00    -0.286 OA
ENDBRANCH  15  16
BRANCH  15  18
ATOM     18  C   SER A   3     -53.071  -8.323  25.128  0.00  0.00    +0.165 C 
BRANCH  18  19
ATOM     19  O   SER A   3     -51.730  -8.704  25.393  0.00  0.00    -0.380 OA
ATOM     20  H   SER A   3     -51.706  -9.288  26.192  0.00  0.00    +0.211 HD
ENDBRANCH  18  19
ENDBRANCH  15  18
ENDBRANCH  13  15
ENDBRANCH   1  11
TORSDOF 7
REMARK  Name = ../refined-set-2016/4u0w/4u0w_pocket.pdb
REMARK  261 active torsions:
REMARK  status: ('A' for Active; 'I' for Inactive)
REMARK    1  A    between atoms: _1  and  _3
REMARK    2  A    between atoms: _3  and  _4
REMARK    3  A    between atoms: _3  and  _6
REMARK    4  A    between atoms: _6  and  _7
REMARK    5  A    between atoms: _7  and  _8
REMARK    6  A    between atoms: _13  and  _15
REMARK    7  A    between atoms: _15  and  _16
REMARK    8  A    between atoms: _15  and  _18
REMARK    9  A    between atoms: _18  and  _19
REMARK   10  A    between atoms: _22  and  _24
REMARK   11  A    between atoms: _24  and  _25
REMARK   12  A    between atoms: _24  and  _27
REMARK   13  A    between atoms: _27  and  _28
REMARK   14  A    between atoms: _31  and  _33
REMARK   15  A    between atoms: _33  and  _34
REMARK   16  A    between atoms: _33  and  _36
REMARK   17  A    between atoms: _36  and  _37
REMARK   18  A    between atoms: _40  and  _42
REMARK   19  A    between atoms: _42  and  _43
REMARK   20  A    between atoms: _42  and  _45
REMARK   21  A    between atoms: _45  and  _46
REMARK   22  A    between atoms: _48  and  _50
REMARK   23  A    between atoms: _50  and  _51
REMARK   24  A    between atoms: _50  and  _53
REMARK   25  A    between atoms: _53  and  _54
REMARK   26  A    between atoms: _60  and  _62
REMARK   27  A    between atoms: _62  and  _63
REMARK   28  A    between atoms: _62  and  _65
REMARK   29  A    between atoms: _65  and  _66
REMARK   30  A    between atoms: _69  and  _71
REMARK   31  A    between atoms: _71  and  _72
REMARK   32  A    between atoms: _71  and  _74
REMARK   33  A    between atoms: _74  and  _75
REMARK   34  A    between atoms: _75  and  _76
REMARK   35  A    between atoms: _79  and  _81
REMARK   36  A    between atoms: _81  and  _82
REMARK   37  A    between atoms: _81  and  _84
REMARK   38  A    between atoms: _84  and  _85
REMARK   39  A    between atoms: _88  and  _90
REMARK   40  A    between atoms: _90  and  _91
REMARK   41  A    between atoms: _90  and  _93
REMARK   42  A    between atoms: _93  and  _94
REMARK   43  A    between atoms: _94  and  _95
REMARK   44  A    between atoms: _97  and  _99
REMARK   45  A    between atoms: _99  and  _100
REMARK   46  A    between atoms: _99  and  _102
REMARK   47  A    between atoms: _102  and  _103
REMARK   48  A    between atoms: _103  and  _104
REMARK   49  A    between atoms: _104  and  _105
REMARK   50  A    between atoms: _105  and  _106
REMARK   51  A    between atoms: _111  and  _112
REMARK   52  A    between atoms: _117  and  _119
REMARK   53  A    between atoms: _119  and  _120
REMARK   54  A    between atoms: _122  and  _124
REMARK   55  A    between atoms: _124  and  _125
REMARK   56  A    between atoms: _124  and  _127
REMARK   57  A    between atoms: _127  and  _128
REMARK   58  A    between atoms: _130  and  _132
REMARK   59  A    between atoms: _132  and  _133
REMARK   60  A    between atoms: _132  and  _135
REMARK   61  A    between atoms: _135  and  _136
REMARK   62  A    between atoms: _139  and  _141
REMARK   63  A    between atoms: _141  and  _142
REMARK   64  A    between atoms: _141  and  _144
REMARK   65  A    between atoms: _144  and  _145
REMARK   66  A    between atoms: _145  and  _146
REMARK   67  A    between atoms: _146  and  _147
REMARK   68  A    between atoms: _156  and  _158
REMARK   69  A    between atoms: _158  and  _159
REMARK   70  A    between atoms: _158  and  _161
REMARK   71  A    between atoms: _161  and  _162
REMARK   72  A    between atoms: _162  and  _163
REMARK   73  A    between atoms: _163  and  _164
REMARK   74  A    between atoms: _173  and  _175
REMARK   75  A    between atoms: _175  and  _176
REMARK   76  A    between atoms: _179  and  _181
REMARK   77  A    between atoms: _181  and  _182
REMARK   78  A    between atoms: _181  and  _184
REMARK   79  A    between atoms: _184  and  _185
REMARK   80  A    between atoms: _188  and  _190
REMARK   81  A    between atoms: _190  and  _191
REMARK   82  A    between atoms: _190  and  _193
REMARK   83  A    between atoms: _193  and  _194
REMARK   84  A    between atoms: _194  and  _195
REMARK   85  A    between atoms: _198  and  _200
REMARK   86  A    between atoms: _200  and  _201
REMARK   87  A    between atoms: _200  and  _203
REMARK   88  A    between atoms: _203  and  _204
REMARK   89  A    between atoms: _206  and  _208
REMARK   90  A    between atoms: _208  and  _209
REMARK   91  A    between atoms: _208  and  _211
REMARK   92  A    between atoms: _211  and  _212
REMARK   93  A    between atoms: _214  and  _216
REMARK   94  A    between atoms: _216  and  _217
REMARK   95  A    between atoms: _216  and  _219
REMARK   96  A    between atoms: _219  and  _220
REMARK   97  A    between atoms: _225  and  _227
REMARK   98  A    between atoms: _227  and  _228
REMARK   99  A    between atoms: _227  and  _230
REMARK  100  A    between atoms: _230  and  _231
REMARK  101  A    between atoms: _234  and  _236
REMARK  102  A    between atoms: _236  and  _237
REMARK  103  A    between atoms: _236  and  _239
REMARK  104  A    between atoms: _239  and  _240
REMARK  105  A    between atoms: _245  and  _247
REMARK  106  A    between atoms: _247  and  _248
REMARK  107  A    between atoms: _247  and  _250
REMARK  108  A    between atoms: _250  and  _251
REMARK  109  A    between atoms: _257  and  _259
REMARK  110  A    between atoms: _259  and  _260
REMARK  111  A    between atoms: _259  and  _262
REMARK  112  A    between atoms: _262  and  _263
REMARK  113  A    between atoms: _263  and  _264
REMARK  114  A    between atoms: _269  and  _271
REMARK  115  A    between atoms: _271  and  _272
REMARK  116  A    between atoms: _271  and  _274
REMARK  117  A    between atoms: _274  and  _275
REMARK  118  A    between atoms: _277  and  _279
REMARK  119  A    between atoms: _279  and  _280
REMARK  120  A    between atoms: _279  and  _282
REMARK  121  A    between atoms: _282  and  _283
REMARK  122  A    between atoms: _285  and  _287
REMARK  123  A    between atoms: _287  and  _288
REMARK  124  A    between atoms: _287  and  _290
REMARK  125  A    between atoms: _290  and  _291
REMARK  126  A    between atoms: _294  and  _296
REMARK  127  A    between atoms: _296  and  _297
REMARK  128  A    between atoms: _296  and  _299
REMARK  129  A    between atoms: _299  and  _300
REMARK  130  A    between atoms: _305  and  _306
REMARK  131  A    between atoms: _308  and  _310
REMARK  132  A    between atoms: _310  and  _311
REMARK  133  A    between atoms: _310  and  _313
REMARK  134  A    between atoms: _313  and  _314
REMARK  135  A    between atoms: _317  and  _319
REMARK  136  A    between atoms: _319  and  _320
REMARK  137  A    between atoms: _319  and  _322
REMARK  138  A    between atoms: _322  and  _323
REMARK  139  A    between atoms: _328  and  _330
REMARK  140  A    between atoms: _330  and  _331
REMARK  141  A    between atoms: _330  and  _333
REMARK  142  A    between atoms: _333  and  _334
REMARK  143  A    between atoms: _337  and  _339
REMARK  144  A    between atoms: _339  and  _340
REMARK  145  A    between atoms: _339  and  _342
REMARK  146  A    between atoms: _342  and  _343
REMARK  147  A    between atoms: _343  and  _344
REMARK  148  A    between atoms: _347  and  _349
REMARK  149  A    between atoms: _349  and  _350
REMARK  150  A    between atoms: _349  and  _352
REMARK  151  A    between atoms: _352  and  _353
REMARK  152  A    between atoms: _356  and  _358
REMARK  153  A    between atoms: _358  and  _359
REMARK  154  A    between atoms: _362  and  _364
REMARK  155  A    between atoms: _364  and  _365
REMARK  156  A    between atoms: _364  and  _367
REMARK  157  A    between atoms: _367  and  _368
REMARK  158  A    between atoms: _368  and  _369
REMARK  159  A    between atoms: _369  and  _370
REMARK  160  A    between atoms: _370  and  _371
REMARK  161  A    between atoms: _375  and  _377
REMARK  162  A    between atoms: _377  and  _378
REMARK  163  A    between atoms: _377  and  _380
REMARK  164  A    between atoms: _380  and  _381
REMARK  165  A    between atoms: _381  and  _382
REMARK  166  A    between atoms: _387  and  _389
REMARK  167  A    between atoms: _389  and  _390
REMARK  168  A    between atoms: _389  and  _392
REMARK  169  A    between atoms: _392  and  _393
REMARK  170  A    between atoms: _393  and  _394
REMARK  171  A    between atoms: _397  and  _399
REMARK  172  A    between atoms: _399  and  _400
REMARK  173  A    between atoms: _399  and  _402
REMARK  174  A    between atoms: _402  and  _403
REMARK  175  A    between atoms: _406  and  _408
REMARK  176  A    between atoms: _408  and  _409
REMARK  177  A    between atoms: _408  and  _411
REMARK  178  A    between atoms: _411  and  _412
REMARK  179  A    between atoms: _415  and  _417
REMARK  180  A    between atoms: _417  and  _418
REMARK  181  A    between atoms: _417  and  _420
REMARK  182  A    between atoms: _420  and  _421
REMARK  183  A    between atoms: _424  and  _426
REMARK  184  A    between atoms: _426  and  _427
REMARK  185  A    between atoms: _426  and  _429
REMARK  186  A    between atoms: _429  and  _430
REMARK  187  A    between atoms: _433  and  _435
REMARK  188  A    between atoms: _435  and  _436
REMARK  189  A    between atoms: _435  and  _438
REMARK  190  A    between atoms: _438  and  _439
REMARK  191  A    between atoms: _439  and  _440
REMARK  192  A    between atoms: _440  and  _441
REMARK  193  A    between atoms: _441  and  _442
REMARK  194  A    between atoms: _446  and  _448
REMARK  195  A    between atoms: _448  and  _449
REMARK  196  A    between atoms: _448  and  _451
REMARK  197  A    between atoms: _451  and  _452
REMARK  198  A    between atoms: _452  and  _453
REMARK  199  A    between atoms: _453  and  _454
REMARK  200  A    between atoms: _463  and  _465
REMARK  201  A    between atoms: _465  and  _466
REMARK  202  A    between atoms: _465  and  _468
REMARK  203  A    between atoms: _468  and  _469
REMARK  204  A    between atoms: _472  and  _474
REMARK  205  A    between atoms: _474  and  _475
REMARK  206  A    between atoms: _474  and  _477
REMARK  207  A    between atoms: _477  and  _478
REMARK  208  A    between atoms: _481  and  _483
REMARK  209  A    between atoms: _483  and  _484
REMARK  210  A    between atoms: _483  and  _486
REMARK  211  A    between atoms: _486  and  _487
REMARK  212  A    between atoms: _493  and  _495
REMARK  213  A    between atoms: _495  and  _496
REMARK  214  A    between atoms: _495  and  _498
REMARK  215  A    between atoms: _498  and  _499
REMARK  216  A    between atoms: _499  and  _500
REMARK  217  A    between atoms: _503  and  _505
REMARK  218  A    between atoms: _505  and  _506
REMARK  219  A    between atoms: _505  and  _508
REMARK  220  A    between atoms: _508  and  _509
REMARK  221  A    between atoms: _514  and  _516
REMARK  222  A    between atoms: _516  and  _517
REMARK  223  A    between atoms: _520  and  _522
REMARK  224  A    between atoms: _522  and  _523
REMARK  225  A    between atoms: _522  and  _525
REMARK  226  A    between atoms: _525  and  _526
REMARK  227  A    between atoms: _526  and  _527
REMARK  228  A    between atoms: _527  and  _528
REMARK  229  A    between atoms: _528  and  _529
REMARK  230  A    between atoms: _533  and  _535
REMARK  231  A    between atoms: _535  and  _536
REMARK  232  A    between atoms: _535  and  _538
REMARK  233  A    between atoms: _538  and  _539
REMARK  234  A    between atoms: _541  and  _543
REMARK  235  A    between atoms: _543  and  _544
REMARK  236  A    between atoms: _543  and  _546
REMARK  237  A    between atoms: _549  and  _551
REMARK  238  A    between atoms: _551  and  _552
REMARK  239  A    between atoms: _551  and  _554
REMARK  240  A    between atoms: _554  and  _555
REMARK  241  A    between atoms: _560  and  _561
REMARK  242  A    between atoms: _563  and  _565
REMARK  243  A    between atoms: _565  and  _566
REMARK  244  A    between atoms: _565  and  _568
REMARK  245  A    between atoms: _568  and  _569
REMARK  246  A    between atoms: _574  and  _575
REMARK  247  A    between atoms: _577  and  _579
REMARK  248  A    between atoms: _579  and  _580
REMARK  249  A    between atoms: _579  and  _582
REMARK  250  A    between atoms: _582  and  _583
REMARK  251  A    between atoms: _589  and  _591
REMARK  252  A    between atoms: _591  and  _592
REMARK  253  A    between atoms: _591  and  _594
REMARK  254  A    between atoms: _594  and  _595
REMARK  255  A    between atoms: _595  and  _596
REMARK  256  A    between atoms: _598  and  _600
REMARK  257  A    between atoms: _600  and  _601
REMARK  258  A    between atoms: _600  and  _603
REMARK  259  A    between atoms: _603  and  _604
REMARK  260  A    between atoms: _604  and  _605
REMARK  261  A    between atoms: _605  and  _606
REMARK                            x       y       z     vdW  Elec       q    Type
REMARK                         _______ _______ _______ _____ _____    ______ ____
ROOT
ATOM      1  CA  ILE A   1     -49.616  -6.506  15.901  0.00  0.00    +0.133 C 
ENDROOT
BRANCH   1   2
ATOM      2  N   ILE A   1     -48.770  -6.271  14.755  0.00  0.00    -0.239 NA
ATOM      3  H   ILE A   1     -47.740  -6.347  14.880  0.00  0.00    +0.142 HD
ENDBRANCH   1   2
BRANCH   1   4
ATOM      4  C   ILE A   1     -49.350  -5.429  16.950  0.00  0.00    +0.224 C 
ATOM      5  O   ILE A   1     -48.240  -5.351  17.491  0.00  0.00    -0.287 OA
ENDBRANCH   1   4
BRANCH   1   6
ATOM      6  CB  ILE A   1     -49.352  -7.906  16.517  0.00  0.00    +0.023 C 
ATOM      7  CG2 ILE A   1     -50.339  -8.187  17.666  0.00  0.00    +0.002 C 
BRANCH   6   8
ATOM      8  CG1 ILE A   1     -49.384  -8.981  15.424  0.00  0.00    +0.002 C 
ATOM      9  CD1 ILE A   1     -48.769 -10.318  15.843  0.00  0.00    +0.000 C 
ENDBRANCH   6   8
ENDBRANCH   1   6
TORSDOF 4
REMARK  Name = ../refined-set-2016/4u0w/4u0w_pocket.pdb
REMARK  261 active torsions:
REMARK  status: ('A' for Active; 'I' for Inactive)
REMARK    1  A    between atoms: _1  and  _3
REMARK    2  A    between atoms: _3  and  _4
REMARK    3  A    between atoms: _3  and  _6
REMARK    4  A    between atoms: _6  and  _7
REMARK    5  A    between atoms: _7  and  _8
REMARK    6  A    between atoms: _13  and  _15
REMARK    7  A    between atoms: _15  and  _16
REMARK    8  A    between atoms: _15  and  _18
REMARK    9  A    between atoms: _18  and  _19
REMARK   10  A    between atoms: _22  and  _24
REMARK   11  A    between atoms: _24  and  _25
REMARK   12  A    between atoms: _24  and  _27
REMARK   13  A    between atoms: _27  and  _28
REMARK   14  A    between atoms: _31  and  _33
REMARK   15  A    between atoms: _33  and  _34
REMARK   16  A    between atoms: _33  and  _36
REMARK   17  A    between atoms: _36  and  _37
REMARK   18  A    between atoms: _40  and  _42
REMARK   19  A    between atoms: _42  and  _43
REMARK   20  A    between atoms: _42  and  _45
REMARK   21  A    between atoms: _45  and  _46
REMARK   22  A    between atoms: _48  and  _50
REMARK   23  A    between atoms: _50  and  _51
REMARK   24  A    between atoms: _50  and  _53
REMARK   25  A    between atoms: _53  and  _54
REMARK   26  A    between atoms: _60  and  _62
REMARK   27  A    between atoms: _62  and  _63
REMARK   28  A    between atoms: _62  and  _65
REMARK   29  A    between atoms: _65  and  _66
REMARK   30  A    between atoms: _69  and  _71
REMARK   31  A    between atoms: _71  and  _72
REMARK   32  A    between atoms: _71  and  _74
REMARK   33  A    between atoms: _74  and  _75
REMARK   34  A    between atoms: _75  and  _76
REMARK   35  A    between atoms: _79  and  _81
REMARK   36  A    between atoms: _81  and  _82
REMARK   37  A    between atoms: _81  and  _84
REMARK   38  A    between atoms: _84  and  _85
REMARK   39  A    between atoms: _88  and  _90
REMARK   40  A    between atoms: _90  and  _91
REMARK   41  A    between atoms: _90  and  _93
REMARK   42  A    between atoms: _93  and  _94
REMARK   43  A    between atoms: _94  and  _95
REMARK   44  A    between atoms: _97  and  _99
REMARK   45  A    between atoms: _99  and  _100
REMARK   46  A    between atoms: _99  and  _102
REMARK   47  A    between atoms: _102  and  _103
REMARK   48  A    between atoms: _103  and  _104
REMARK   49  A    between atoms: _104  and  _105
REMARK   50  A    between atoms: _105  and  _106
REMARK   51  A    between atoms: _111  and  _112
REMARK   52  A    between atoms: _117  and  _119
REMARK   53  A    between atoms: _119  and  _120
REMARK   54  A    between atoms: _122  and  _124
REMARK   55  A    between atoms: _124  and  _125
REMARK   56  A    between atoms: _124  and  _127
REMARK   57  A    between atoms: _127  and  _128
REMARK   58  A    between atoms: _130  and  _132
REMARK   59  A    between atoms: _132  and  _133
REMARK   60  A    between atoms: _132  and  _135
REMARK   61  A    between atoms: _135  and  _136
REMARK   62  A    between atoms: _139  and  _141
REMARK   63  A    between atoms: _141  and  _142
REMARK   64  A    between atoms: _141  and  _144
REMARK   65  A    between atoms: _144  and  _145
REMARK   66  A    between atoms: _145  and  _146
REMARK   67  A    between atoms: _146  and  _147
REMARK   68  A    between atoms: _156  and  _158
REMARK   69  A    between atoms: _158  and  _159
REMARK   70  A    between atoms: _158  and  _161
REMARK   71  A    between atoms: _161  and  _162
REMARK   72  A    between atoms: _162  and  _163
REMARK   73  A    between atoms: _163  and  _164
REMARK   74  A    between atoms: _173  and  _175
REMARK   75  A    between atoms: _175  and  _176
REMARK   76  A    between atoms: _179  and  _181
REMARK   77  A    between atoms: _181  and  _182
REMARK   78  A    between atoms: _181  and  _184
REMARK   79  A    between atoms: _184  and  _185
REMARK   80  A    between atoms: _188  and  _190
REMARK   81  A    between atoms: _190  and  _191
REMARK   82  A    between atoms: _190  and  _193
REMARK   83  A    between atoms: _193  and  _194
REMARK   84  A    between atoms: _194  and  _195
REMARK   85  A    between atoms: _198  and  _200
REMARK   86  A    between atoms: _200  and  _201
REMARK   87  A    between atoms: _200  and  _203
REMARK   88  A    between atoms: _203  and  _204
REMARK   89  A    between atoms: _206  and  _208
REMARK   90  A    between atoms: _208  and  _209
REMARK   91  A    between atoms: _208  and  _211
REMARK   92  A    between atoms: _211  and  _212
REMARK   93  A    between atoms: _214  and  _216
REMARK   94  A    between atoms: _216  and  _217
REMARK   95  A    between atoms: _216  and  _219
REMARK   96  A    between atoms: _219  and  _220
REMARK   97  A    between atoms: _225  and  _227
REMARK   98  A    between atoms: _227  and  _228
REMARK   99  A    between atoms: _227  and  _230
REMARK  100  A    between atoms: _230  and  _231
REMARK  101  A    between atoms: _234  and  _236
REMARK  102  A    between atoms: _236  and  _237
REMARK  103  A    between atoms: _236  and  _239
REMARK  104  A    between atoms: _239  and  _240
REMARK  105  A    between atoms: _245  and  _247
REMARK  106  A    between atoms: _247  and  _248
REMARK  107  A    between atoms: _247  and  _250
REMARK  108  A    between atoms: _250  and  _251
REMARK  109  A    between atoms: _257  and  _259
REMARK  110  A    between atoms: _259  and  _260
REMARK  111  A    between atoms: _259  and  _262
REMARK  112  A    between atoms: _262  and  _263
REMARK  113  A    between atoms: _263  and  _264
REMARK  114  A    between atoms: _269  and  _271
REMARK  115  A    between atoms: _271  and  _272
REMARK  116  A    between atoms: _271  and  _274
REMARK  117  A    between atoms: _274  and  _275
REMARK  118  A    between atoms: _277  and  _279
REMARK  119  A    between atoms: _279  and  _280
REMARK  120  A    between atoms: _279  and  _282
REMARK  121  A    between atoms: _282  and  _283
REMARK  122  A    between atoms: _285  and  _287
REMARK  123  A    between atoms: _287  and  _288
REMARK  124  A    between atoms: _287  and  _290
REMARK  125  A    between atoms: _290  and  _291
REMARK  126  A    between atoms: _294  and  _296
REMARK  127  A    between atoms: _296  and  _297
REMARK  128  A    between atoms: _296  and  _299
REMARK  129  A    between atoms: _299  and  _300
REMARK  130  A    between atoms: _305  and  _306
REMARK  131  A    between atoms: _308  and  _310
REMARK  132  A    between atoms: _310  and  _311
REMARK  133  A    between atoms: _310  and  _313
REMARK  134  A    between atoms: _313  and  _314
REMARK  135  A    between atoms: _317  and  _319
REMARK  136  A    between atoms: _319  and  _320
REMARK  137  A    between atoms: _319  and  _322
REMARK  138  A    between atoms: _322  and  _323
REMARK  139  A    between atoms: _328  and  _330
REMARK  140  A    between atoms: _330  and  _331
REMARK  141  A    between atoms: _330  and  _333
REMARK  142  A    between atoms: _333  and  _334
REMARK  143  A    between atoms: _337  and  _339
REMARK  144  A    between atoms: _339  and  _340
REMARK  145  A    between atoms: _339  and  _342
REMARK  146  A    between atoms: _342  and  _343
REMARK  147  A    between atoms: _343  and  _344
REMARK  148  A    between atoms: _347  and  _349
REMARK  149  A    between atoms: _349  and  _350
REMARK  150  A    between atoms: _349  and  _352
REMARK  151  A    between atoms: _352  and  _353
REMARK  152  A    between atoms: _356  and  _358
REMARK  153  A    between atoms: _358  and  _359
REMARK  154  A    between atoms: _362  and  _364
REMARK  155  A    between atoms: _364  and  _365
REMARK  156  A    between atoms: _364  and  _367
REMARK  157  A    between atoms: _367  and  _368
REMARK  158  A    between atoms: _368  and  _369
REMARK  159  A    between atoms: _369  and  _370
REMARK  160  A    between atoms: _370  and  _371
REMARK  161  A    between atoms: _375  and  _377
REMARK  162  A    between atoms: _377  and  _378
REMARK  163  A    between atoms: _377  and  _380
REMARK  164  A    between atoms: _380  and  _381
REMARK  165  A    between atoms: _381  and  _382
REMARK  166  A    between atoms: _387  and  _389
REMARK  167  A    between atoms: _389  and  _390
REMARK  168  A    between atoms: _389  and  _392
REMARK  169  A    between atoms: _392  and  _393
REMARK  170  A    between atoms: _393  and  _394
REMARK  171  A    between atoms: _397  and  _399
REMARK  172  A    between atoms: _399  and  _400
REMARK  173  A    between atoms: _399  and  _402
REMARK  174  A    between atoms: _402  and  _403
REMARK  175  A    between atoms: _406  and  _408
REMARK  176  A    between atoms: _408  and  _409
REMARK  177  A    between atoms: _408  and  _411
REMARK  178  A    between atoms: _411  and  _412
REMARK  179  A    between atoms: _415  and  _417
REMARK  180  A    between atoms: _417  and  _418
REMARK  181  A    between atoms: _417  and  _420
REMARK  182  A    between atoms: _420  and  _421
REMARK  183  A    between atoms: _424  and  _426
REMARK  184  A    between atoms: _426  and  _427
REMARK  185  A    between atoms: _426  and  _429
REMARK  186  A    between atoms: _429  and  _430
REMARK  187  A    between atoms: _433  and  _435
REMARK  188  A    between atoms: _435  and  _436
REMARK  189  A    between atoms: _435  and  _438
REMARK  190  A    between atoms: _438  and  _439
REMARK  191  A    between atoms: _439  and  _440
REMARK  192  A    between atoms: _440  and  _441
REMARK  193  A    between atoms: _441  and  _442
REMARK  194  A    between atoms: _446  and  _448
REMARK  195  A    between atoms: _448  and  _449
REMARK  196  A    between atoms: _448  and  _451
REMARK  197  A    between atoms: _451  and  _452
REMARK  198  A    between atoms: _452  and  _453
REMARK  199  A    between atoms: _453  and  _454
REMARK  200  A    between atoms: _463  and  _465
REMARK  201  A    between atoms: _465  and  _466
REMARK  202  A    between atoms: _465  and  _468
REMARK  203  A    between atoms: _468  and  _469
REMARK  204  A    between atoms: _472  and  _474
REMARK  205  A    between atoms: _474  and  _475
REMARK  206  A    between atoms: _474  and  _477
REMARK  207  A    between atoms: _477  and  _478
REMARK  208  A    between atoms: _481  and  _483
REMARK  209  A    between atoms: _483  and  _484
REMARK  210  A    between atoms: _483  and  _486
REMARK  211  A    between atoms: _486  and  _487
REMARK  212  A    between atoms: _493  and  _495
REMARK  213  A    between atoms: _495  and  _496
REMARK  214  A    between atoms: _495  and  _498
REMARK  215  A    between atoms: _498  and  _499
REMARK  216  A    between atoms: _499  and  _500
REMARK  217  A    between atoms: _503  and  _505
REMARK  218  A    between atoms: _505  and  _506
REMARK  219  A    between atoms: _505  and  _508
REMARK  220  A    between atoms: _508  and  _509
REMARK  221  A    between atoms: _514  and  _516
REMARK  222  A    between atoms: _516  and  _517
REMARK  223  A    between atoms: _520  and  _522
REMARK  224  A    between atoms: _522  and  _523
REMARK  225  A    between atoms: _522  and  _525
REMARK  226  A    between atoms: _525  and  _526
REMARK  227  A    between atoms: _526  and  _527
REMARK  228  A    between atoms: _527  and  _528
REMARK  229  A    between atoms: _528  and  _529
REMARK  230  A    between atoms: _533  and  _535
REMARK  231  A    between atoms: _535  and  _536
REMARK  232  A    between atoms: _535  and  _538
REMARK  233  A    between atoms: _538  and  _539
REMARK  234  A    between atoms: _541  and  _543
REMARK  235  A    between atoms: _543  and  _544
REMARK  236  A    between atoms: _543  and  _546
REMARK  237  A    between atoms: _549  and  _551
REMARK  238  A    between atoms: _551  and  _552
REMARK  239  A    between atoms: _551  and  _554
REMARK  240  A    between atoms: _554  and  _555
REMARK  241  A    between atoms: _560  and  _561
REMARK  242  A    between atoms: _563  and  _565
REMARK  243  A    between atoms: _565  and  _566
REMARK  244  A    between atoms: _565  and  _568
REMARK  245  A    between atoms: _568  and  _569
REMARK  246  A    between atoms: _574  and  _575
REMARK  247  A    between atoms: _577  and  _579
REMARK  248  A    between atoms: _579  and  _580
REMARK  249  A    between atoms: _579  and  _582
REMARK  250  A    between atoms: _582  and  _583
REMARK  251  A    between atoms: _589  and  _591
REMARK  252  A    between atoms: _591  and  _592
REMARK  253  A    between atoms: _591  and  _594
REMARK  254  A    between atoms: _594  and  _595
REMARK  255  A    between atoms: _595  and  _596
REMARK  256  A    between atoms: _598  and  _600
REMARK  257  A    between atoms: _600  and  _601
REMARK  258  A    between atoms: _600  and  _603
REMARK  259  A    between atoms: _603  and  _604
REMARK  260  A    between atoms: _604  and  _605
REMARK  261  A    between atoms: _605  and  _606
REMARK                            x       y       z     vdW  Elec       q    Type
REMARK                         _______ _______ _______ _____ _____    ______ ____
ROOT
ATOM      1  NE  ARG A   1     -49.876  -8.468  21.707  0.00  0.00    -0.265 N 
ATOM      2  CZ  ARG A   1     -49.409  -9.554  22.318  0.00  0.00    +0.342 C 
ATOM      3  NH2 ARG A   1     -50.253 -10.417  22.871  0.00  0.00    -0.292 N 
ATOM      4 HH21 ARG A   1     -49.890 -11.266  23.349  0.00  0.00    +0.255 HD
ATOM      5 HH22 ARG A   1     -51.277 -10.244  22.826  0.00  0.00    +0.255 HD
ATOM      6  NH1 ARG A   1     -48.100  -9.773  22.382  0.00  0.00    -0.292 N 
ATOM      7 HH11 ARG A   1     -47.738 -10.623  22.860  0.00  0.00    +0.255 HD
ATOM      8 HH12 ARG A   1     -47.438  -9.095  21.954  0.00  0.00    +0.255 HD
ATOM      9  HE  ARG A   1     -49.186  -7.806  21.297  0.00  0.00    +0.259 HD
ENDROOT
BRANCH   1  10
ATOM     10  CD  ARG A   1     -51.295  -8.145  21.574  0.00  0.00    +0.174 C 
BRANCH  10  11
ATOM     11  CG  ARG A   1     -51.512  -6.738  21.057  0.00  0.00    +0.045 C 
BRANCH  11  12
ATOM     12  CB  ARG A   1     -51.186  -5.725  22.146  0.00  0.00    +0.029 C 
BRANCH  12  13
ATOM     13  CA  ARG A   1     -51.344  -4.256  21.733  0.00  0.00    +0.133 C 
BRANCH  13  14
ATOM     14  N   ARG A   1     -50.567  -3.982  20.531  0.00  0.00    -0.239 NA
ATOM     15  H   ARG A   1     -49.529  -4.011  20.589  0.00  0.00    +0.142 HD
ENDBRANCH  13  14
BRANCH  13  16
ATOM     16  C   ARG A   1     -50.939  -3.374  22.918  0.00  0.00    +0.224 C 
ATOM     17  O   ARG A   1     -49.765  -3.034  23.074  0.00  0.00    -0.287 OA
ENDBRANCH  13  16
ENDBRANCH  12  13
ENDBRANCH  11  12
ENDBRANCH  10  11
ENDBRANCH   1  10
TORSDOF 6
REMARK  Name = ../refined-set-2016/4u0w/4u0w_pocket.pdb
REMARK  261 active torsions:
REMARK  status: ('A' for Active; 'I' for Inactive)
REMARK    1  A    between atoms: _1  and  _3
REMARK    2  A    between atoms: _3  and  _4
REMARK    3  A    between atoms: _3  and  _6
REMARK    4  A    between atoms: _6  and  _7
REMARK    5  A    between atoms: _7  and  _8
REMARK    6  A    between atoms: _13  and  _15
REMARK    7  A    between atoms: _15  and  _16
REMARK    8  A    between atoms: _15  and  _18
REMARK    9  A    between atoms: _18  and  _19
REMARK   10  A    between atoms: _22  and  _24
REMARK   11  A    between atoms: _24  and  _25
REMARK   12  A    between atoms: _24  and  _27
REMARK   13  A    between atoms: _27  and  _28
REMARK   14  A    between atoms: _31  and  _33
REMARK   15  A    between atoms: _33  and  _34
REMARK   16  A    between atoms: _33  and  _36
REMARK   17  A    between atoms: _36  and  _37
REMARK   18  A    between atoms: _40  and  _42
REMARK   19  A    between atoms: _42  and  _43
REMARK   20  A    between atoms: _42  and  _45
REMARK   21  A    between atoms: _45  and  _46
REMARK   22  A    between atoms: _48  and  _50
REMARK   23  A    between atoms: _50  and  _51
REMARK   24  A    between atoms: _50  and  _53
REMARK   25  A    between atoms: _53  and  _54
REMARK   26  A    between atoms: _60  and  _62
REMARK   27  A    between atoms: _62  and  _63
REMARK   28  A    between atoms: _62  and  _65
REMARK   29  A    between atoms: _65  and  _66
REMARK   30  A    between atoms: _69  and  _71
REMARK   31  A    between atoms: _71  and  _72
REMARK   32  A    between atoms: _71  and  _74
REMARK   33  A    between atoms: _74  and  _75
REMARK   34  A    between atoms: _75  and  _76
REMARK   35  A    between atoms: _79  and  _81
REMARK   36  A    between atoms: _81  and  _82
REMARK   37  A    between atoms: _81  and  _84
REMARK   38  A    between atoms: _84  and  _85
REMARK   39  A    between atoms: _88  and  _90
REMARK   40  A    between atoms: _90  and  _91
REMARK   41  A    between atoms: _90  and  _93
REMARK   42  A    between atoms: _93  and  _94
REMARK   43  A    between atoms: _94  and  _95
REMARK   44  A    between atoms: _97  and  _99
REMARK   45  A    between atoms: _99  and  _100
REMARK   46  A    between atoms: _99  and  _102
REMARK   47  A    between atoms: _102  and  _103
REMARK   48  A    between atoms: _103  and  _104
REMARK   49  A    between atoms: _104  and  _105
REMARK   50  A    between atoms: _105  and  _106
REMARK   51  A    between atoms: _111  and  _112
REMARK   52  A    between atoms: _117  and  _119
REMARK   53  A    between atoms: _119  and  _120
REMARK   54  A    between atoms: _122  and  _124
REMARK   55  A    between atoms: _124  and  _125
REMARK   56  A    between atoms: _124  and  _127
REMARK   57  A    between atoms: _127  and  _128
REMARK   58  A    between atoms: _130  and  _132
REMARK   59  A    between atoms: _132  and  _133
REMARK   60  A    between atoms: _132  and  _135
REMARK   61  A    between atoms: _135  and  _136
REMARK   62  A    between atoms: _139  and  _141
REMARK   63  A    between atoms: _141  and  _142
REMARK   64  A    between atoms: _141  and  _144
REMARK   65  A    between atoms: _144  and  _145
REMARK   66  A    between atoms: _145  and  _146
REMARK   67  A    between atoms: _146  and  _147
REMARK   68  A    between atoms: _156  and  _158
REMARK   69  A    between atoms: _158  and  _159
REMARK   70  A    between atoms: _158  and  _161
REMARK   71  A    between atoms: _161  and  _162
REMARK   72  A    between atoms: _162  and  _163
REMARK   73  A    between atoms: _163  and  _164
REMARK   74  A    between atoms: _173  and  _175
REMARK   75  A    between atoms: _175  and  _176
REMARK   76  A    between atoms: _179  and  _181
REMARK   77  A    between atoms: _181  and  _182
REMARK   78  A    between atoms: _181  and  _184
REMARK   79  A    between atoms: _184  and  _185
REMARK   80  A    between atoms: _188  and  _190
REMARK   81  A    between atoms: _190  and  _191
REMARK   82  A    between atoms: _190  and  _193
REMARK   83  A    between atoms: _193  and  _194
REMARK   84  A    between atoms: _194  and  _195
REMARK   85  A    between atoms: _198  and  _200
REMARK   86  A    between atoms: _200  and  _201
REMARK   87  A    between atoms: _200  and  _203
REMARK   88  A    between atoms: _203  and  _204
REMARK   89  A    between atoms: _206  and  _208
REMARK   90  A    between atoms: _208  and  _209
REMARK   91  A    between atoms: _208  and  _211
REMARK   92  A    between atoms: _211  and  _212
REMARK   93  A    between atoms: _214  and  _216
REMARK   94  A    between atoms: _216  and  _217
REMARK   95  A    between atoms: _216  and  _219
REMARK   96  A    between atoms: _219  and  _220
REMARK   97  A    between atoms: _225  and  _227
REMARK   98  A    between atoms: _227  and  _228
REMARK   99  A    between atoms: _227  and  _230
REMARK  100  A    between atoms: _230  and  _231
REMARK  101  A    between atoms: _234  and  _236
REMARK  102  A    between atoms: _236  and  _237
REMARK  103  A    between atoms: _236  and  _239
REMARK  104  A    between atoms: _239  and  _240
REMARK  105  A    between atoms: _245  and  _247
REMARK  106  A    between atoms: _247  and  _248
REMARK  107  A    between atoms: _247  and  _250
REMARK  108  A    between atoms: _250  and  _251
REMARK  109  A    between atoms: _257  and  _259
REMARK  110  A    between atoms: _259  and  _260
REMARK  111  A    between atoms: _259  and  _262
REMARK  112  A    between atoms: _262  and  _263
REMARK  113  A    between atoms: _263  and  _264
REMARK  114  A    between atoms: _269  and  _271
REMARK  115  A    between atoms: _271  and  _272
REMARK  116  A    between atoms: _271  and  _274
REMARK  117  A    between atoms: _274  and  _275
REMARK  118  A    between atoms: _277  and  _279
REMARK  119  A    between atoms: _279  and  _280
REMARK  120  A    between atoms: _279  and  _282
REMARK  121  A    between atoms: _282  and  _283
REMARK  122  A    between atoms: _285  and  _287
REMARK  123  A    between atoms: _287  and  _288
REMARK  124  A    between atoms: _287  and  _290
REMARK  125  A    between atoms: _290  and  _291
REMARK  126  A    between atoms: _294  and  _296
REMARK  127  A    between atoms: _296  and  _297
REMARK  128  A    between atoms: _296  and  _299
REMARK  129  A    between atoms: _299  and  _300
REMARK  130  A    between atoms: _305  and  _306
REMARK  131  A    between atoms: _308  and  _310
REMARK  132  A    between atoms: _310  and  _311
REMARK  133  A    between atoms: _310  and  _313
REMARK  134  A    between atoms: _313  and  _314
REMARK  135  A    between atoms: _317  and  _319
REMARK  136  A    between atoms: _319  and  _320
REMARK  137  A    between atoms: _319  and  _322
REMARK  138  A    between atoms: _322  and  _323
REMARK  139  A    between atoms: _328  and  _330
REMARK  140  A    between atoms: _330  and  _331
REMARK  141  A    between atoms: _330  and  _333
REMARK  142  A    between atoms: _333  and  _334
REMARK  143  A    between atoms: _337  and  _339
REMARK  144  A    between atoms: _339  and  _340
REMARK  145  A    between atoms: _339  and  _342
REMARK  146  A    between atoms: _342  and  _343
REMARK  147  A    between atoms: _343  and  _344
REMARK  148  A    between atoms: _347  and  _349
REMARK  149  A    between atoms: _349  and  _350
REMARK  150  A    between atoms: _349  and  _352
REMARK  151  A    between atoms: _352  and  _353
REMARK  152  A    between atoms: _356  and  _358
REMARK  153  A    between atoms: _358  and  _359
REMARK  154  A    between atoms: _362  and  _364
REMARK  155  A    between atoms: _364  and  _365
REMARK  156  A    between atoms: _364  and  _367
REMARK  157  A    between atoms: _367  and  _368
REMARK  158  A    between atoms: _368  and  _369
REMARK  159  A    between atoms: _369  and  _370
REMARK  160  A    between atoms: _370  and  _371
REMARK  161  A    between atoms: _375  and  _377
REMARK  162  A    between atoms: _377  and  _378
REMARK  163  A    between atoms: _377  and  _380
REMARK  164  A    between atoms: _380  and  _381
REMARK  165  A    between atoms: _381  and  _382
REMARK  166  A    between atoms: _387  and  _389
REMARK  167  A    between atoms: _389  and  _390
REMARK  168  A    between atoms: _389  and  _392
REMARK  169  A    between atoms: _392  and  _393
REMARK  170  A    between atoms: _393  and  _394
REMARK  171  A    between atoms: _397  and  _399
REMARK  172  A    between atoms: _399  and  _400
REMARK  173  A    between atoms: _399  and  _402
REMARK  174  A    between atoms: _402  and  _403
REMARK  175  A    between atoms: _406  and  _408
REMARK  176  A    between atoms: _408  and  _409
REMARK  177  A    between atoms: _408  and  _411
REMARK  178  A    between atoms: _411  and  _412
REMARK  179  A    between atoms: _415  and  _417
REMARK  180  A    between atoms: _417  and  _418
REMARK  181  A    between atoms: _417  and  _420
REMARK  182  A    between atoms: _420  and  _421
REMARK  183  A    between atoms: _424  and  _426
REMARK  184  A    between atoms: _426  and  _427
REMARK  185  A    between atoms: _426  and  _429
REMARK  186  A    between atoms: _429  and  _430
REMARK  187  A    between atoms: _433  and  _435
REMARK  188  A    between atoms: _435  and  _436
REMARK  189  A    between atoms: _435  and  _438
REMARK  190  A    between atoms: _438  and  _439
REMARK  191  A    between atoms: _439  and  _440
REMARK  192  A    between atoms: _440  and  _441
REMARK  193  A    between atoms: _441  and  _442
REMARK  194  A    between atoms: _446  and  _448
REMARK  195  A    between atoms: _448  and  _449
REMARK  196  A    between atoms: _448  and  _451
REMARK  197  A    between atoms: _451  and  _452
REMARK  198  A    between atoms: _452  and  _453
REMARK  199  A    between atoms: _453  and  _454
REMARK  200  A    between atoms: _463  and  _465
REMARK  201  A    between atoms: _465  and  _466
REMARK  202  A    between atoms: _465  and  _468
REMARK  203  A    between atoms: _468  and  _469
REMARK  204  A    between atoms: _472  and  _474
REMARK  205  A    between atoms: _474  and  _475
REMARK  206  A    between atoms: _474  and  _477
REMARK  207  A    between atoms: _477  and  _478
REMARK  208  A    between atoms: _481  and  _483
REMARK  209  A    between atoms: _483  and  _484
REMARK  210  A    between atoms: _483  and  _486
REMARK  211  A    between atoms: _486  and  _487
REMARK  212  A    between atoms: _493  and  _495
REMARK  213  A    between atoms: _495  and  _496
REMARK  214  A    between atoms: _495  and  _498
REMARK  215  A    between atoms: _498  and  _499
REMARK  216  A    between atoms: _499  and  _500
REMARK  217  A    between atoms: _503  and  _505
REMARK  218  A    between atoms: _505  and  _506
REMARK  219  A    between atoms: _505  and  _508
REMARK  220  A    between atoms: _508  and  _509
REMARK  221  A    between atoms: _514  and  _516
REMARK  222  A    between atoms: _516  and  _517
REMARK  223  A    between atoms: _520  and  _522
REMARK  224  A    between atoms: _522  and  _523
REMARK  225  A    between atoms: _522  and  _525
REMARK  226  A    between atoms: _525  and  _526
REMARK  227  A    between atoms: _526  and  _527
REMARK  228  A    between atoms: _527  and  _528
REMARK  229  A    between atoms: _528  and  _529
REMARK  230  A    between atoms: _533  and  _535
REMARK  231  A    between atoms: _535  and  _536
REMARK  232  A    between atoms: _535  and  _538
REMARK  233  A    between atoms: _538  and  _539
REMARK  234  A    between atoms: _541  and  _543
REMARK  235  A    between atoms: _543  and  _544
REMARK  236  A    between atoms: _543  and  _546
REMARK  237  A    between atoms: _549  and  _551
REMARK  238  A    between atoms: _551  and  _552
REMARK  239  A    between atoms: _551  and  _554
REMARK  240  A    between atoms: _554  and  _555
REMARK  241  A    between atoms: _560  and  _561
REMARK  242  A    between atoms: _563  and  _565
REMARK  243  A    between atoms: _565  and  _566
REMARK  244  A    between atoms: _565  and  _568
REMARK  245  A    between atoms: _568  and  _569
REMARK  246  A    between atoms: _574  and  _575
REMARK  247  A    between atoms: _577  and  _579
REMARK  248  A    between atoms: _579  and  _580
REMARK  249  A    between atoms: _579  and  _582
REMARK  250  A    between atoms: _582  and  _583
REMARK  251  A    between atoms: _589  and  _591
REMARK  252  A    between atoms: _591  and  _592
REMARK  253  A    between atoms: _591  and  _594
REMARK  254  A    between atoms: _594  and  _595
REMARK  255  A    between atoms: _595  and  _596
REMARK  256  A    between atoms: _598  and  _600
REMARK  257  A    between atoms: _600  and  _601
REMARK  258  A    between atoms: _600  and  _603
REMARK  259  A    between atoms: _603  and  _604
REMARK  260  A    between atoms: _604  and  _605
REMARK  261  A    between atoms: _605  and  _606
REMARK                            x       y       z     vdW  Elec       q    Type
REMARK                         _______ _______ _______ _____ _____    ______ ____
ROOT
ATOM      1  NE  ARG A   1     -49.065  -7.920  25.758  0.00  0.00    -0.265 N 
ATOM      2  HE  ARG A   1     -49.958  -8.117  26.254  0.00  0.00    +0.259 HD
ATOM      3  CZ  ARG A   1     -48.184  -8.916  25.650  0.00  0.00    +0.342 C 
ATOM      4  NH2 ARG A   1     -48.468 -10.128  26.130  0.00  0.00    -0.292 N 
ATOM      5 HH21 ARG A   1     -49.383 -10.303  26.593  0.00  0.00    +0.255 HD
ATOM      6 HH22 ARG A   1     -47.775 -10.898  26.041  0.00  0.00    +0.255 HD
ATOM      7  NH1 ARG A   1     -47.004  -8.705  25.077  0.00  0.00    -0.292 N 
ATOM      8 HH11 ARG A   1     -46.319  -9.484  24.994  0.00  0.00    +0.255 HD
ATOM      9 HH12 ARG A   1     -46.765  -7.761  24.711  0.00  0.00    +0.255 HD
ENDROOT
BRANCH   1  10
ATOM     10  CD  ARG A   1     -48.864  -6.560  25.224  0.00  0.00    +0.174 C 
BRANCH  10  11
ATOM     11  CG  ARG A   1     -47.991  -5.656  26.075  0.00  0.00    +0.045 C 
BRANCH  11  12
ATOM     12  CB  ARG A   1     -48.541  -5.505  27.493  0.00  0.00    +0.029 C 
BRANCH  12  13
ATOM     13  CA  ARG A   1     -49.997  -5.029  27.550  0.00  0.00    +0.133 C 
BRANCH  13  14
ATOM     14  N   ARG A   1     -50.227  -3.892  26.662  0.00  0.00    -0.239 NA
ATOM     15  H   ARG A   1     -49.526  -3.126  26.600  0.00  0.00    +0.142 HD
ENDBRANCH  13  14
BRANCH  13  16
ATOM     16  C   ARG A   1     -50.383  -4.624  28.978  0.00  0.00    +0.224 C 
ATOM     17  O   ARG A   1     -50.017  -3.547  29.440  0.00  0.00    -0.287 OA
ENDBRANCH  13  16
ENDBRANCH  12  13
ENDBRANCH  11  12
ENDBRANCH  10  11
ENDBRANCH   1  10
TORSDOF 6
REMARK  Name = ../refined-set-2016/4u0w/4u0w_pocket.pdb
REMARK  261 active torsions:
REMARK  status: ('A' for Active; 'I' for Inactive)
REMARK    1  A    between atoms: _1  and  _3
REMARK    2  A    between atoms: _3  and  _4
REMARK    3  A    between atoms: _3  and  _6
REMARK    4  A    between atoms: _6  and  _7
REMARK    5  A    between atoms: _7  and  _8
REMARK    6  A    between atoms: _13  and  _15
REMARK    7  A    between atoms: _15  and  _16
REMARK    8  A    between atoms: _15  and  _18
REMARK    9  A    between atoms: _18  and  _19
REMARK   10  A    between atoms: _22  and  _24
REMARK   11  A    between atoms: _24  and  _25
REMARK   12  A    between atoms: _24  and  _27
REMARK   13  A    between atoms: _27  and  _28
REMARK   14  A    between atoms: _31  and  _33
REMARK   15  A    between atoms: _33  and  _34
REMARK   16  A    between atoms: _33  and  _36
REMARK   17  A    between atoms: _36  and  _37
REMARK   18  A    between atoms: _40  and  _42
REMARK   19  A    between atoms: _42  and  _43
REMARK   20  A    between atoms: _42  and  _45
REMARK   21  A    between atoms: _45  and  _46
REMARK   22  A    between atoms: _48  and  _50
REMARK   23  A    between atoms: _50  and  _51
REMARK   24  A    between atoms: _50  and  _53
REMARK   25  A    between atoms: _53  and  _54
REMARK   26  A    between atoms: _60  and  _62
REMARK   27  A    between atoms: _62  and  _63
REMARK   28  A    between atoms: _62  and  _65
REMARK   29  A    between atoms: _65  and  _66
REMARK   30  A    between atoms: _69  and  _71
REMARK   31  A    between atoms: _71  and  _72
REMARK   32  A    between atoms: _71  and  _74
REMARK   33  A    between atoms: _74  and  _75
REMARK   34  A    between atoms: _75  and  _76
REMARK   35  A    between atoms: _79  and  _81
REMARK   36  A    between atoms: _81  and  _82
REMARK   37  A    between atoms: _81  and  _84
REMARK   38  A    between atoms: _84  and  _85
REMARK   39  A    between atoms: _88  and  _90
REMARK   40  A    between atoms: _90  and  _91
REMARK   41  A    between atoms: _90  and  _93
REMARK   42  A    between atoms: _93  and  _94
REMARK   43  A    between atoms: _94  and  _95
REMARK   44  A    between atoms: _97  and  _99
REMARK   45  A    between atoms: _99  and  _100
REMARK   46  A    between atoms: _99  and  _102
REMARK   47  A    between atoms: _102  and  _103
REMARK   48  A    between atoms: _103  and  _104
REMARK   49  A    between atoms: _104  and  _105
REMARK   50  A    between atoms: _105  and  _106
REMARK   51  A    between atoms: _111  and  _112
REMARK   52  A    between atoms: _117  and  _119
REMARK   53  A    between atoms: _119  and  _120
REMARK   54  A    between atoms: _122  and  _124
REMARK   55  A    between atoms: _124  and  _125
REMARK   56  A    between atoms: _124  and  _127
REMARK   57  A    between atoms: _127  and  _128
REMARK   58  A    between atoms: _130  and  _132
REMARK   59  A    between atoms: _132  and  _133
REMARK   60  A    between atoms: _132  and  _135
REMARK   61  A    between atoms: _135  and  _136
REMARK   62  A    between atoms: _139  and  _141
REMARK   63  A    between atoms: _141  and  _142
REMARK   64  A    between atoms: _141  and  _144
REMARK   65  A    between atoms: _144  and  _145
REMARK   66  A    between atoms: _145  and  _146
REMARK   67  A    between atoms: _146  and  _147
REMARK   68  A    between atoms: _156  and  _158
REMARK   69  A    between atoms: _158  and  _159
REMARK   70  A    between atoms: _158  and  _161
REMARK   71  A    between atoms: _161  and  _162
REMARK   72  A    between atoms: _162  and  _163
REMARK   73  A    between atoms: _163  and  _164
REMARK   74  A    between atoms: _173  and  _175
REMARK   75  A    between atoms: _175  and  _176
REMARK   76  A    between atoms: _179  and  _181
REMARK   77  A    between atoms: _181  and  _182
REMARK   78  A    between atoms: _181  and  _184
REMARK   79  A    between atoms: _184  and  _185
REMARK   80  A    between atoms: _188  and  _190
REMARK   81  A    between atoms: _190  and  _191
REMARK   82  A    between atoms: _190  and  _193
REMARK   83  A    between atoms: _193  and  _194
REMARK   84  A    between atoms: _194  and  _195
REMARK   85  A    between atoms: _198  and  _200
REMARK   86  A    between atoms: _200  and  _201
REMARK   87  A    between atoms: _200  and  _203
REMARK   88  A    between atoms: _203  and  _204
REMARK   89  A    between atoms: _206  and  _208
REMARK   90  A    between atoms: _208  and  _209
REMARK   91  A    between atoms: _208  and  _211
REMARK   92  A    between atoms: _211  and  _212
REMARK   93  A    between atoms: _214  and  _216
REMARK   94  A    between atoms: _216  and  _217
REMARK   95  A    between atoms: _216  and  _219
REMARK   96  A    between atoms: _219  and  _220
REMARK   97  A    between atoms: _225  and  _227
REMARK   98  A    between atoms: _227  and  _228
REMARK   99  A    between atoms: _227  and  _230
REMARK  100  A    between atoms: _230  and  _231
REMARK  101  A    between atoms: _234  and  _236
REMARK  102  A    between atoms: _236  and  _237
REMARK  103  A    between atoms: _236  and  _239
REMARK  104  A    between atoms: _239  and  _240
REMARK  105  A    between atoms: _245  and  _247
REMARK  106  A    between atoms: _247  and  _248
REMARK  107  A    between atoms: _247  and  _250
REMARK  108  A    between atoms: _250  and  _251
REMARK  109  A    between atoms: _257  and  _259
REMARK  110  A    between atoms: _259  and  _260
REMARK  111  A    between atoms: _259  and  _262
REMARK  112  A    between atoms: _262  and  _263
REMARK  113  A    between atoms: _263  and  _264
REMARK  114  A    between atoms: _269  and  _271
REMARK  115  A    between atoms: _271  and  _272
REMARK  116  A    between atoms: _271  and  _274
REMARK  117  A    between atoms: _274  and  _275
REMARK  118  A    between atoms: _277  and  _279
REMARK  119  A    between atoms: _279  and  _280
REMARK  120  A    between atoms: _279  and  _282
REMARK  121  A    between atoms: _282  and  _283
REMARK  122  A    between atoms: _285  and  _287
REMARK  123  A    between atoms: _287  and  _288
REMARK  124  A    between atoms: _287  and  _290
REMARK  125  A    between atoms: _290  and  _291
REMARK  126  A    between atoms: _294  and  _296
REMARK  127  A    between atoms: _296  and  _297
REMARK  128  A    between atoms: _296  and  _299
REMARK  129  A    between atoms: _299  and  _300
REMARK  130  A    between atoms: _305  and  _306
REMARK  131  A    between atoms: _308  and  _310
REMARK  132  A    between atoms: _310  and  _311
REMARK  133  A    between atoms: _310  and  _313
REMARK  134  A    between atoms: _313  and  _314
REMARK  135  A    between atoms: _317  and  _319
REMARK  136  A    between atoms: _319  and  _320
REMARK  137  A    between atoms: _319  and  _322
REMARK  138  A    between atoms: _322  and  _323
REMARK  139  A    between atoms: _328  and  _330
REMARK  140  A    between atoms: _330  and  _331
REMARK  141  A    between atoms: _330  and  _333
REMARK  142  A    between atoms: _333  and  _334
REMARK  143  A    between atoms: _337  and  _339
REMARK  144  A    between atoms: _339  and  _340
REMARK  145  A    between atoms: _339  and  _342
REMARK  146  A    between atoms: _342  and  _343
REMARK  147  A    between atoms: _343  and  _344
REMARK  148  A    between atoms: _347  and  _349
REMARK  149  A    between atoms: _349  and  _350
REMARK  150  A    between atoms: _349  and  _352
REMARK  151  A    between atoms: _352  and  _353
REMARK  152  A    between atoms: _356  and  _358
REMARK  153  A    between atoms: _358  and  _359
REMARK  154  A    between atoms: _362  and  _364
REMARK  155  A    between atoms: _364  and  _365
REMARK  156  A    between atoms: _364  and  _367
REMARK  157  A    between atoms: _367  and  _368
REMARK  158  A    between atoms: _368  and  _369
REMARK  159  A    between atoms: _369  and  _370
REMARK  160  A    between atoms: _370  and  _371
REMARK  161  A    between atoms: _375  and  _377
REMARK  162  A    between atoms: _377  and  _378
REMARK  163  A    between atoms: _377  and  _380
REMARK  164  A    between atoms: _380  and  _381
REMARK  165  A    between atoms: _381  and  _382
REMARK  166  A    between atoms: _387  and  _389
REMARK  167  A    between atoms: _389  and  _390
REMARK  168  A    between atoms: _389  and  _392
REMARK  169  A    between atoms: _392  and  _393
REMARK  170  A    between atoms: _393  and  _394
REMARK  171  A    between atoms: _397  and  _399
REMARK  172  A    between atoms: _399  and  _400
REMARK  173  A    between atoms: _399  and  _402
REMARK  174  A    between atoms: _402  and  _403
REMARK  175  A    between atoms: _406  and  _408
REMARK  176  A    between atoms: _408  and  _409
REMARK  177  A    between atoms: _408  and  _411
REMARK  178  A    between atoms: _411  and  _412
REMARK  179  A    between atoms: _415  and  _417
REMARK  180  A    between atoms: _417  and  _418
REMARK  181  A    between atoms: _417  and  _420
REMARK  182  A    between atoms: _420  and  _421
REMARK  183  A    between atoms: _424  and  _426
REMARK  184  A    between atoms: _426  and  _427
REMARK  185  A    between atoms: _426  and  _429
REMARK  186  A    between atoms: _429  and  _430
REMARK  187  A    between atoms: _433  and  _435
REMARK  188  A    between atoms: _435  and  _436
REMARK  189  A    between atoms: _435  and  _438
REMARK  190  A    between atoms: _438  and  _439
REMARK  191  A    between atoms: _439  and  _440
REMARK  192  A    between atoms: _440  and  _441
REMARK  193  A    between atoms: _441  and  _442
REMARK  194  A    between atoms: _446  and  _448
REMARK  195  A    between atoms: _448  and  _449
REMARK  196  A    between atoms: _448  and  _451
REMARK  197  A    between atoms: _451  and  _452
REMARK  198  A    between atoms: _452  and  _453
REMARK  199  A    between atoms: _453  and  _454
REMARK  200  A    between atoms: _463  and  _465
REMARK  201  A    between atoms: _465  and  _466
REMARK  202  A    between atoms: _465  and  _468
REMARK  203  A    between atoms: _468  and  _469
REMARK  204  A    between atoms: _472  and  _474
REMARK  205  A    between atoms: _474  and  _475
REMARK  206  A    between atoms: _474  and  _477
REMARK  207  A    between atoms: _477  and  _478
REMARK  208  A    between atoms: _481  and  _483
REMARK  209  A    between atoms: _483  and  _484
REMARK  210  A    between atoms: _483  and  _486
REMARK  211  A    between atoms: _486  and  _487
REMARK  212  A    between atoms: _493  and  _495
REMARK  213  A    between atoms: _495  and  _496
REMARK  214  A    between atoms: _495  and  _498
REMARK  215  A    between atoms: _498  and  _499
REMARK  216  A    between atoms: _499  and  _500
REMARK  217  A    between atoms: _503  and  _505
REMARK  218  A    between atoms: _505  and  _506
REMARK  219  A    between atoms: _505  and  _508
REMARK  220  A    between atoms: _508  and  _509
REMARK  221  A    between atoms: _514  and  _516
REMARK  222  A    between atoms: _516  and  _517
REMARK  223  A    between atoms: _520  and  _522
REMARK  224  A    between atoms: _522  and  _523
REMARK  225  A    between atoms: _522  and  _525
REMARK  226  A    between atoms: _525  and  _526
REMARK  227  A    between atoms: _526  and  _527
REMARK  228  A    between atoms: _527  and  _528
REMARK  229  A    between atoms: _528  and  _529
REMARK  230  A    between atoms: _533  and  _535
REMARK  231  A    between atoms: _535  and  _536
REMARK  232  A    between atoms: _535  and  _538
REMARK  233  A    between atoms: _538  and  _539
REMARK  234  A    between atoms: _541  and  _543
REMARK  235  A    between atoms: _543  and  _544
REMARK  236  A    between atoms: _543  and  _546
REMARK  237  A    between atoms: _549  and  _551
REMARK  238  A    between atoms: _551  and  _552
REMARK  239  A    between atoms: _551  and  _554
REMARK  240  A    between atoms: _554  and  _555
REMARK  241  A    between atoms: _560  and  _561
REMARK  242  A    between atoms: _563  and  _565
REMARK  243  A    between atoms: _565  and  _566
REMARK  244  A    between atoms: _565  and  _568
REMARK  245  A    between atoms: _568  and  _569
REMARK  246  A    between atoms: _574  and  _575
REMARK  247  A    between atoms: _577  and  _579
REMARK  248  A    between atoms: _579  and  _580
REMARK  249  A    between atoms: _579  and  _582
REMARK  250  A    between atoms: _582  and  _583
REMARK  251  A    between atoms: _589  and  _591
REMARK  252  A    between atoms: _591  and  _592
REMARK  253  A    between atoms: _591  and  _594
REMARK  254  A    between atoms: _594  and  _595
REMARK  255  A    between atoms: _595  and  _596
REMARK  256  A    between atoms: _598  and  _600
REMARK  257  A    between atoms: _600  and  _601
REMARK  258  A    between atoms: _600  and  _603
REMARK  259  A    between atoms: _603  and  _604
REMARK  260  A    between atoms: _604  and  _605
REMARK  261  A    between atoms: _605  and  _606
REMARK                            x       y       z     vdW  Elec       q    Type
REMARK                         _______ _______ _______ _____ _____    ______ ____
ROOT
ATOM      1  CA  SER A   4     -46.072  -2.997  18.008  0.00  0.00    +0.178 C 
ENDROOT
BRANCH   1   4
ATOM      2  C   GLU A   3     -46.562  -3.020  20.387  0.00  0.00    +0.241 C 
ATOM      3  O   GLU A   3     -47.732  -3.299  20.189  0.00  0.00    -0.273 OA
ATOM      4  N   SER A   4     -45.696  -2.816  19.406  0.00  0.00    -0.295 N 
ATOM      5  H   SER A   4     -44.726  -2.520  19.637  0.00  0.00    +0.150 HD
BRANCH   2   6
ATOM      6  CA  GLU A   3     -46.026  -2.874  21.815  0.00  0.00    +0.149 C 
BRANCH   6   9
ATOM      7  C   ILE A   2     -46.629  -1.044  23.295  0.00  0.00    +0.241 C 
ATOM      8  O   ILE A   2     -45.510  -0.532  23.219  0.00  0.00    -0.273 OA
ATOM      9  N   GLU A   3     -46.969  -2.168  22.665  0.00  0.00    -0.297 N 
ATOM     10  H   GLU A   3     -47.930  -2.548  22.784  0.00  0.00    +0.150 HD
BRANCH   7  11
ATOM     11  CA  ILE A   2     -47.678  -0.420  24.181  0.00  0.00    +0.148 C 
BRANCH  11  14
ATOM     12  C   ALA A   1     -47.618  -0.904  26.574  0.00  0.00    +0.238 C 
ATOM     13  O   ALA A   1     -48.725  -1.426  26.578  0.00  0.00    -0.274 OA
ATOM     14  N   ILE A   2     -47.089  -0.321  25.507  0.00  0.00    -0.297 N 
ATOM     15  H   ILE A   2     -46.215   0.231  25.623  0.00  0.00    +0.150 HD
BRANCH  12  16
ATOM     16  CA  ALA A   1     -46.760  -0.879  27.835  0.00  0.00    +0.145 C 
ATOM     17  CB  ALA A   1     -45.648  -1.917  27.724  0.00  0.00    +0.028 C 
BRANCH  16  18
ATOM     18  N   ALA A   1     -47.546  -1.117  29.036  0.00  0.00    -0.238 NA
ATOM     19  H   ALA A   1     -48.468  -1.592  28.960  0.00  0.00    +0.142 HD
ENDBRANCH  16  18
ENDBRANCH  12  16
ENDBRANCH  11  14
BRANCH  11  20
ATOM     20  CB  ILE A   2     -48.092   0.945  23.630  0.00  0.00    +0.027 C 
ATOM     21  CG2 ILE A   2     -48.597   0.809  22.193  0.00  0.00    +0.002 C 
BRANCH  20  22
ATOM     22  CG1 ILE A   2     -49.148   1.570  24.539  0.00  0.00    +0.002 C 
ATOM     23  CD1 ILE A   2     -49.472   3.025  24.224  0.00  0.00    +0.000 C 
ENDBRANCH  20  22
ENDBRANCH  11  20
ENDBRANCH   7  11
ENDBRANCH   6   9
BRANCH   6  24
ATOM     24  CB  GLU A   3     -45.716  -4.249  22.403  0.00  0.00    +0.041 C 
BRANCH  24  25
ATOM     25  CG  GLU A   3     -45.137  -4.191  23.823  0.00  0.00    +0.116 C 
BRANCH  25  26
ATOM     26  CD  GLU A   3     -44.976  -5.566  24.431  0.00  0.00    +0.365 C 
ATOM     27  OE2 GLU A   3     -44.127  -5.733  25.344  0.00  0.00    -0.246 OA
ATOM     28  OE1 GLU A   3     -45.705  -6.481  23.986  0.00  0.00    -0.246 OA
ENDBRANCH  25  26
ENDBRANCH  24  25
ENDBRANCH   6  24
ENDBRANCH   2   6
ENDBRANCH   1   4
BRANCH   1  29
ATOM     29  C   SER A   4     -45.103  -3.987  17.404  0.00  0.00    +0.243 C 
ATOM     30  N   SER A   5     -45.557  -5.223  17.243  0.00  0.00    -0.295 N 
ATOM     31  H   SER A   5     -46.560  -5.433  17.422  0.00  0.00    +0.150 HD
ATOM     32  O   SER A   4     -43.947  -3.658  17.126  0.00  0.00    -0.273 OA
BRANCH  30  33
ATOM     33  CA  SER A   5     -44.658  -6.290  16.816  0.00  0.00    +0.178 C 
BRANCH  33  34
ATOM     34  C   SER A   5     -44.822  -6.605  15.333  0.00  0.00    +0.243 C 
ATOM     35  O   SER A   5     -45.944  -6.771  14.871  0.00  0.00    -0.273 OA
ATOM     36  N   HIS A   6     -43.707  -6.694  14.612  0.00  0.00    -0.297 N 
ATOM     37  H   HIS A   6     -42.796  -6.501  15.074  0.00  0.00    +0.150 HD
BRANCH  36  38
ATOM     38  CA  HIS A   6     -43.714  -7.055  13.187  0.00  0.00    +0.155 C 
BRANCH  38  39
ATOM     39  C   HIS A   6     -43.145  -8.456  13.005  0.00  0.00    +0.241 C 
ATOM     40  O   HIS A   6     -41.977  -8.723  13.323  0.00  0.00    -0.273 OA
ATOM     41  N   ILE A   7     -43.974  -9.342  12.462  0.00  0.00    -0.298 N 
ATOM     42  H   ILE A   7     -44.887  -9.011  12.091  0.00  0.00    +0.150 HD
BRANCH  41  43
ATOM     43  CA  ILE A   7     -43.653 -10.754  12.368  0.00  0.00    +0.137 C 
BRANCH  43  44
ATOM     44  C   ILE A   7     -43.979 -11.286  10.971  0.00  0.00    +0.227 C 
ATOM     45  O   ILE A   7     -45.134 -11.267  10.582  0.00  0.00    -0.286 OA
ENDBRANCH  43  44
BRANCH  43  46
ATOM     46  CB  ILE A   7     -44.447 -11.567  13.420  0.00  0.00    +0.026 C 
ATOM     47  CG2 ILE A   7     -44.217 -13.053  13.243  0.00  0.00    +0.002 C 
BRANCH  46  48
ATOM     48  CG1 ILE A   7     -44.049 -11.135  14.836  0.00  0.00    +0.002 C 
ATOM     49  CD1 ILE A   7     -44.874 -11.793  15.918  0.00  0.00    +0.000 C 
ENDBRANCH  46  48
ENDBRANCH  43  46
ENDBRANCH  41  43
ENDBRANCH  38  39
BRANCH  38  50
ATOM     50  CB  HIS A   6     -42.903  -6.061  12.341  0.00  0.00    +0.076 C 
BRANCH  50  51
ATOM     51  CG  HIS A   6     -43.436  -4.656  12.360  0.00  0.00    +0.082 A 
ATOM     52  ND1 HIS A   6     -43.581  -3.926  13.524  0.00  0.00    -0.227 NA
ATOM     53  CE1 HIS A   6     -44.064  -2.730  13.234  0.00  0.00    +0.199 A 
ATOM     54  NE2 HIS A   6     -44.212  -2.648  11.923  0.00  0.00    -0.221 NA
ATOM     55  CD2 HIS A   6     -43.824  -3.837  11.353  0.00  0.00    +0.115 A 
ENDBRANCH  50  51
ENDBRANCH  38  50
ENDBRANCH  36  38
ENDBRANCH  33  34
BRANCH  33  56
ATOM     56  CB  SER A   5     -44.897  -7.563  17.629  0.00  0.00    +0.166 C 
BRANCH  56  57
ATOM     57  OG  SER A   5     -43.965  -8.562  17.226  0.00  0.00    -0.380 OA
ATOM     58  H   SER A   5     -43.044  -8.235  17.384  0.00  0.00    +0.211 HD
ENDBRANCH  56  57
ENDBRANCH  33  56
ENDBRANCH  30  33
ENDBRANCH   1  29
BRANCH   1  59
ATOM     59  CB  SER A   4     -46.055  -1.670  17.252  0.00  0.00    +0.166 C 
BRANCH  59  60
ATOM     60  OG  SER A   4     -46.603  -1.845  15.949  0.00  0.00    -0.380 OA
ATOM     61  H   SER A   4     -47.537  -2.165  16.025  0.00  0.00    +0.211 HD
ENDBRANCH  59  60
ENDBRANCH   1  59
TORSDOF 27
REMARK  Name = ../refined-set-2016/4u0w/4u0w_pocket.pdb
REMARK  261 active torsions:
REMARK  status: ('A' for Active; 'I' for Inactive)
REMARK    1  A    between atoms: _1  and  _3
REMARK    2  A    between atoms: _3  and  _4
REMARK    3  A    between atoms: _3  and  _6
REMARK    4  A    between atoms: _6  and  _7
REMARK    5  A    between atoms: _7  and  _8
REMARK    6  A    between atoms: _13  and  _15
REMARK    7  A    between atoms: _15  and  _16
REMARK    8  A    between atoms: _15  and  _18
REMARK    9  A    between atoms: _18  and  _19
REMARK   10  A    between atoms: _22  and  _24
REMARK   11  A    between atoms: _24  and  _25
REMARK   12  A    between atoms: _24  and  _27
REMARK   13  A    between atoms: _27  and  _28
REMARK   14  A    between atoms: _31  and  _33
REMARK   15  A    between atoms: _33  and  _34
REMARK   16  A    between atoms: _33  and  _36
REMARK   17  A    between atoms: _36  and  _37
REMARK   18  A    between atoms: _40  and  _42
REMARK   19  A    between atoms: _42  and  _43
REMARK   20  A    between atoms: _42  and  _45
REMARK   21  A    between atoms: _45  and  _46
REMARK   22  A    between atoms: _48  and  _50
REMARK   23  A    between atoms: _50  and  _51
REMARK   24  A    between atoms: _50  and  _53
REMARK   25  A    between atoms: _53  and  _54
REMARK   26  A    between atoms: _60  and  _62
REMARK   27  A    between atoms: _62  and  _63
REMARK   28  A    between atoms: _62  and  _65
REMARK   29  A    between atoms: _65  and  _66
REMARK   30  A    between atoms: _69  and  _71
REMARK   31  A    between atoms: _71  and  _72
REMARK   32  A    between atoms: _71  and  _74
REMARK   33  A    between atoms: _74  and  _75
REMARK   34  A    between atoms: _75  and  _76
REMARK   35  A    between atoms: _79  and  _81
REMARK   36  A    between atoms: _81  and  _82
REMARK   37  A    between atoms: _81  and  _84
REMARK   38  A    between atoms: _84  and  _85
REMARK   39  A    between atoms: _88  and  _90
REMARK   40  A    between atoms: _90  and  _91
REMARK   41  A    between atoms: _90  and  _93
REMARK   42  A    between atoms: _93  and  _94
REMARK   43  A    between atoms: _94  and  _95
REMARK   44  A    between atoms: _97  and  _99
REMARK   45  A    between atoms: _99  and  _100
REMARK   46  A    between atoms: _99  and  _102
REMARK   47  A    between atoms: _102  and  _103
REMARK   48  A    between atoms: _103  and  _104
REMARK   49  A    between atoms: _104  and  _105
REMARK   50  A    between atoms: _105  and  _106
REMARK   51  A    between atoms: _111  and  _112
REMARK   52  A    between atoms: _117  and  _119
REMARK   53  A    between atoms: _119  and  _120
REMARK   54  A    between atoms: _122  and  _124
REMARK   55  A    between atoms: _124  and  _125
REMARK   56  A    between atoms: _124  and  _127
REMARK   57  A    between atoms: _127  and  _128
REMARK   58  A    between atoms: _130  and  _132
REMARK   59  A    between atoms: _132  and  _133
REMARK   60  A    between atoms: _132  and  _135
REMARK   61  A    between atoms: _135  and  _136
REMARK   62  A    between atoms: _139  and  _141
REMARK   63  A    between atoms: _141  and  _142
REMARK   64  A    between atoms: _141  and  _144
REMARK   65  A    between atoms: _144  and  _145
REMARK   66  A    between atoms: _145  and  _146
REMARK   67  A    between atoms: _146  and  _147
REMARK   68  A    between atoms: _156  and  _158
REMARK   69  A    between atoms: _158  and  _159
REMARK   70  A    between atoms: _158  and  _161
REMARK   71  A    between atoms: _161  and  _162
REMARK   72  A    between atoms: _162  and  _163
REMARK   73  A    between atoms: _163  and  _164
REMARK   74  A    between atoms: _173  and  _175
REMARK   75  A    between atoms: _175  and  _176
REMARK   76  A    between atoms: _179  and  _181
REMARK   77  A    between atoms: _181  and  _182
REMARK   78  A    between atoms: _181  and  _184
REMARK   79  A    between atoms: _184  and  _185
REMARK   80  A    between atoms: _188  and  _190
REMARK   81  A    between atoms: _190  and  _191
REMARK   82  A    between atoms: _190  and  _193
REMARK   83  A    between atoms: _193  and  _194
REMARK   84  A    between atoms: _194  and  _195
REMARK   85  A    between atoms: _198  and  _200
REMARK   86  A    between atoms: _200  and  _201
REMARK   87  A    between atoms: _200  and  _203
REMARK   88  A    between atoms: _203  and  _204
REMARK   89  A    between atoms: _206  and  _208
REMARK   90  A    between atoms: _208  and  _209
REMARK   91  A    between atoms: _208  and  _211
REMARK   92  A    between atoms: _211  and  _212
REMARK   93  A    between atoms: _214  and  _216
REMARK   94  A    between atoms: _216  and  _217
REMARK   95  A    between atoms: _216  and  _219
REMARK   96  A    between atoms: _219  and  _220
REMARK   97  A    between atoms: _225  and  _227
REMARK   98  A    between atoms: _227  and  _228
REMARK   99  A    between atoms: _227  and  _230
REMARK  100  A    between atoms: _230  and  _231
REMARK  101  A    between atoms: _234  and  _236
REMARK  102  A    between atoms: _236  and  _237
REMARK  103  A    between atoms: _236  and  _239
REMARK  104  A    between atoms: _239  and  _240
REMARK  105  A    between atoms: _245  and  _247
REMARK  106  A    between atoms: _247  and  _248
REMARK  107  A    between atoms: _247  and  _250
REMARK  108  A    between atoms: _250  and  _251
REMARK  109  A    between atoms: _257  and  _259
REMARK  110  A    between atoms: _259  and  _260
REMARK  111  A    between atoms: _259  and  _262
REMARK  112  A    between atoms: _262  and  _263
REMARK  113  A    between atoms: _263  and  _264
REMARK  114  A    between atoms: _269  and  _271
REMARK  115  A    between atoms: _271  and  _272
REMARK  116  A    between atoms: _271  and  _274
REMARK  117  A    between atoms: _274  and  _275
REMARK  118  A    between atoms: _277  and  _279
REMARK  119  A    between atoms: _279  and  _280
REMARK  120  A    between atoms: _279  and  _282
REMARK  121  A    between atoms: _282  and  _283
REMARK  122  A    between atoms: _285  and  _287
REMARK  123  A    between atoms: _287  and  _288
REMARK  124  A    between atoms: _287  and  _290
REMARK  125  A    between atoms: _290  and  _291
REMARK  126  A    between atoms: _294  and  _296
REMARK  127  A    between atoms: _296  and  _297
REMARK  128  A    between atoms: _296  and  _299
REMARK  129  A    between atoms: _299  and  _300
REMARK  130  A    between atoms: _305  and  _306
REMARK  131  A    between atoms: _308  and  _310
REMARK  132  A    between atoms: _310  and  _311
REMARK  133  A    between atoms: _310  and  _313
REMARK  134  A    between atoms: _313  and  _314
REMARK  135  A    between atoms: _317  and  _319
REMARK  136  A    between atoms: _319  and  _320
REMARK  137  A    between atoms: _319  and  _322
REMARK  138  A    between atoms: _322  and  _323
REMARK  139  A    between atoms: _328  and  _330
REMARK  140  A    between atoms: _330  and  _331
REMARK  141  A    between atoms: _330  and  _333
REMARK  142  A    between atoms: _333  and  _334
REMARK  143  A    between atoms: _337  and  _339
REMARK  144  A    between atoms: _339  and  _340
REMARK  145  A    between atoms: _339  and  _342
REMARK  146  A    between atoms: _342  and  _343
REMARK  147  A    between atoms: _343  and  _344
REMARK  148  A    between atoms: _347  and  _349
REMARK  149  A    between atoms: _349  and  _350
REMARK  150  A    between atoms: _349  and  _352
REMARK  151  A    between atoms: _352  and  _353
REMARK  152  A    between atoms: _356  and  _358
REMARK  153  A    between atoms: _358  and  _359
REMARK  154  A    between atoms: _362  and  _364
REMARK  155  A    between atoms: _364  and  _365
REMARK  156  A    between atoms: _364  and  _367
REMARK  157  A    between atoms: _367  and  _368
REMARK  158  A    between atoms: _368  and  _369
REMARK  159  A    between atoms: _369  and  _370
REMARK  160  A    between atoms: _370  and  _371
REMARK  161  A    between atoms: _375  and  _377
REMARK  162  A    between atoms: _377  and  _378
REMARK  163  A    between atoms: _377  and  _380
REMARK  164  A    between atoms: _380  and  _381
REMARK  165  A    between atoms: _381  and  _382
REMARK  166  A    between atoms: _387  and  _389
REMARK  167  A    between atoms: _389  and  _390
REMARK  168  A    between atoms: _389  and  _392
REMARK  169  A    between atoms: _392  and  _393
REMARK  170  A    between atoms: _393  and  _394
REMARK  171  A    between atoms: _397  and  _399
REMARK  172  A    between atoms: _399  and  _400
REMARK  173  A    between atoms: _399  and  _402
REMARK  174  A    between atoms: _402  and  _403
REMARK  175  A    between atoms: _406  and  _408
REMARK  176  A    between atoms: _408  and  _409
REMARK  177  A    between atoms: _408  and  _411
REMARK  178  A    between atoms: _411  and  _412
REMARK  179  A    between atoms: _415  and  _417
REMARK  180  A    between atoms: _417  and  _418
REMARK  181  A    between atoms: _417  and  _420
REMARK  182  A    between atoms: _420  and  _421
REMARK  183  A    between atoms: _424  and  _426
REMARK  184  A    between atoms: _426  and  _427
REMARK  185  A    between atoms: _426  and  _429
REMARK  186  A    between atoms: _429  and  _430
REMARK  187  A    between atoms: _433  and  _435
REMARK  188  A    between atoms: _435  and  _436
REMARK  189  A    between atoms: _435  and  _438
REMARK  190  A    between atoms: _438  and  _439
REMARK  191  A    between atoms: _439  and  _440
REMARK  192  A    between atoms: _440  and  _441
REMARK  193  A    between atoms: _441  and  _442
REMARK  194  A    between atoms: _446  and  _448
REMARK  195  A    between atoms: _448  and  _449
REMARK  196  A    between atoms: _448  and  _451
REMARK  197  A    between atoms: _451  and  _452
REMARK  198  A    between atoms: _452  and  _453
REMARK  199  A    between atoms: _453  and  _454
REMARK  200  A    between atoms: _463  and  _465
REMARK  201  A    between atoms: _465  and  _466
REMARK  202  A    between atoms: _465  and  _468
REMARK  203  A    between atoms: _468  and  _469
REMARK  204  A    between atoms: _472  and  _474
REMARK  205  A    between atoms: _474  and  _475
REMARK  206  A    between atoms: _474  and  _477
REMARK  207  A    between atoms: _477  and  _478
REMARK  208  A    between atoms: _481  and  _483
REMARK  209  A    between atoms: _483  and  _484
REMARK  210  A    between atoms: _483  and  _486
REMARK  211  A    between atoms: _486  and  _487
REMARK  212  A    between atoms: _493  and  _495
REMARK  213  A    between atoms: _495  and  _496
REMARK  214  A    between atoms: _495  and  _498
REMARK  215  A    between atoms: _498  and  _499
REMARK  216  A    between atoms: _499  and  _500
REMARK  217  A    between atoms: _503  and  _505
REMARK  218  A    between atoms: _505  and  _506
REMARK  219  A    between atoms: _505  and  _508
REMARK  220  A    between atoms: _508  and  _509
REMARK  221  A    between atoms: _514  and  _516
REMARK  222  A    between atoms: _516  and  _517
REMARK  223  A    between atoms: _520  and  _522
REMARK  224  A    between atoms: _522  and  _523
REMARK  225  A    between atoms: _522  and  _525
REMARK  226  A    between atoms: _525  and  _526
REMARK  227  A    between atoms: _526  and  _527
REMARK  228  A    between atoms: _527  and  _528
REMARK  229  A    between atoms: _528  and  _529
REMARK  230  A    between atoms: _533  and  _535
REMARK  231  A    between atoms: _535  and  _536
REMARK  232  A    between atoms: _535  and  _538
REMARK  233  A    between atoms: _538  and  _539
REMARK  234  A    between atoms: _541  and  _543
REMARK  235  A    between atoms: _543  and  _544
REMARK  236  A    between atoms: _543  and  _546
REMARK  237  A    between atoms: _549  and  _551
REMARK  238  A    between atoms: _551  and  _552
REMARK  239  A    between atoms: _551  and  _554
REMARK  240  A    between atoms: _554  and  _555
REMARK  241  A    between atoms: _560  and  _561
REMARK  242  A    between atoms: _563  and  _565
REMARK  243  A    between atoms: _565  and  _566
REMARK  244  A    between atoms: _565  and  _568
REMARK  245  A    between atoms: _568  and  _569
REMARK  246  A    between atoms: _574  and  _575
REMARK  247  A    between atoms: _577  and  _579
REMARK  248  A    between atoms: _579  and  _580
REMARK  249  A    between atoms: _579  and  _582
REMARK  250  A    between atoms: _582  and  _583
REMARK  251  A    between atoms: _589  and  _591
REMARK  252  A    between atoms: _591  and  _592
REMARK  253  A    between atoms: _591  and  _594
REMARK  254  A    between atoms: _594  and  _595
REMARK  255  A    between atoms: _595  and  _596
REMARK  256  A    between atoms: _598  and  _600
REMARK  257  A    between atoms: _600  and  _601
REMARK  258  A    between atoms: _600  and  _603
REMARK  259  A    between atoms: _603  and  _604
REMARK  260  A    between atoms: _604  and  _605
REMARK  261  A    between atoms: _605  and  _606
REMARK                            x       y       z     vdW  Elec       q    Type
REMARK                         _______ _______ _______ _____ _____    ______ ____
ROOT
ATOM      1  CA  ILE A   6     -47.196 -14.405  20.960  0.00  0.00    +0.149 C 
ENDROOT
BRANCH   1   4
ATOM      2  C   SER A   5     -48.180 -15.319  22.973  0.00  0.00    +0.243 C 
ATOM      3  O   SER A   5     -48.224 -16.446  22.485  0.00  0.00    -0.273 OA
ATOM      4  N   ILE A   6     -47.740 -14.261  22.301  0.00  0.00    -0.297 N 
ATOM      5  H   ILE A   6     -47.785 -13.319  22.739  0.00  0.00    +0.150 HD
BRANCH   2   6
ATOM      6  CA  SER A   5     -48.629 -15.069  24.404  0.00  0.00    +0.178 C 
BRANCH   6   8
ATOM      7  C   SER A   4     -50.974 -14.448  24.541  0.00  0.00    +0.243 C 
ATOM      8  N   SER A   5     -50.039 -15.386  24.590  0.00  0.00    -0.295 N 
ATOM      9  H   SER A   5     -50.318 -16.372  24.765  0.00  0.00    +0.150 HD
ATOM     10  O   SER A   4     -50.726 -13.275  24.268  0.00  0.00    -0.273 OA
BRANCH   7  11
ATOM     11  CA  SER A   4     -52.407 -14.895  24.812  0.00  0.00    +0.178 C 
BRANCH  11  14
ATOM     12  C   GLN A   3     -54.196 -13.248  24.849  0.00  0.00    +0.241 C 
ATOM     13  O   GLN A   3     -54.302 -13.288  26.068  0.00  0.00    -0.273 OA
ATOM     14  N   SER A   4     -53.321 -13.974  24.167  0.00  0.00    -0.295 N 
ATOM     15  H   SER A   4     -53.290 -13.879  23.132  0.00  0.00    +0.150 HD
BRANCH  12  16
ATOM     16  CA  GLN A   3     -55.087 -12.348  24.020  0.00  0.00    +0.149 C 
BRANCH  16  19
ATOM     17  C   PHE A   2     -53.738 -11.518  22.158  0.00  0.00    +0.241 C 
ATOM     18  O   PHE A   2     -53.104 -10.749  22.879  0.00  0.00    -0.273 OA
ATOM     19  N   GLN A   3     -54.676 -12.334  22.620  0.00  0.00    -0.297 N 
ATOM     20  H   GLN A   3     -55.137 -12.990  21.958  0.00  0.00    +0.150 HD
BRANCH  17  21
ATOM     21  CA  PHE A   2     -53.495 -11.565  20.647  0.00  0.00    +0.153 C 
BRANCH  21  24
ATOM     22  C   HIS A   1     -53.097 -13.984  20.431  0.00  0.00    +0.239 C 
ATOM     23  O   HIS A   1     -52.213 -14.004  21.284  0.00  0.00    -0.274 OA
ATOM     24  N   PHE A   2     -53.766 -12.884  20.079  0.00  0.00    -0.297 N 
ATOM     25  H   PHE A   2     -54.517 -12.970  19.365  0.00  0.00    +0.150 HD
BRANCH  22  26
ATOM     26  CA  HIS A   1     -53.503 -15.265  19.715  0.00  0.00    +0.151 C 
BRANCH  26  27
ATOM     27  N   HIS A   1     -54.955 -15.371  19.686  0.00  0.00    -0.238 NA
ATOM     28  H   HIS A   1     -55.457 -15.266  18.781  0.00  0.00    +0.142 HD
ENDBRANCH  26  27
BRANCH  26  29
ATOM     29  CB  HIS A   1     -52.914 -15.273  18.307  0.00  0.00    +0.074 C 
BRANCH  29  30
ATOM     30  CG  HIS A   1     -53.052 -16.578  17.591  0.00  0.00    +0.082 A 
ATOM     31  CD2 HIS A   1     -52.358 -17.735  17.705  0.00  0.00    +0.115 A 
ATOM     32  NE2 HIS A   1     -52.887 -18.616  16.790  0.00  0.00    -0.221 NA
ATOM     33  CE1 HIS A   1     -53.876 -18.021  16.145  0.00  0.00    +0.199 A 
ATOM     34  ND1 HIS A   1     -53.997 -16.791  16.609  0.00  0.00    -0.227 NA
ENDBRANCH  29  30
ENDBRANCH  26  29
ENDBRANCH  22  26
ENDBRANCH  21  24
BRANCH  21  35
ATOM     35  CB  PHE A   2     -54.369 -10.500  19.969  0.00  0.00    +0.055 C 
BRANCH  35  36
ATOM     36  CG  PHE A   2     -54.258 -10.475  18.470  0.00  0.00    -0.020 A 
ATOM     37  CD2 PHE A   2     -53.075 -10.836  17.835  0.00  0.00    -0.004 A 
ATOM     38  CE2 PHE A   2     -52.971 -10.813  16.460  0.00  0.00    -0.000 A 
ATOM     39  CZ  PHE A   2     -54.070 -10.417  15.693  0.00  0.00    -0.000 A 
ATOM     40  CE1 PHE A   2     -55.245 -10.053  16.311  0.00  0.00    -0.000 A 
ATOM     41  CD1 PHE A   2     -55.339 -10.085  17.695  0.00  0.00    -0.004 A 
ENDBRANCH  35  36
ENDBRANCH  21  35
ENDBRANCH  17  21
ENDBRANCH  16  19
BRANCH  16  42
ATOM     42  CB  GLN A   3     -56.537 -12.804  24.135  0.00  0.00    +0.039 C 
BRANCH  42  43
ATOM     43  CG  GLN A   3     -57.513 -11.800  23.586  0.00  0.00    +0.087 C 
BRANCH  43  44
ATOM     44  CD  GLN A   3     -57.445 -10.509  24.347  0.00  0.00    +0.219 C 
ATOM     45  OE1 GLN A   3     -57.627 -10.495  25.560  0.00  0.00    -0.275 OA
ATOM     46  NE2 GLN A   3     -57.175  -9.414  23.646  0.00  0.00    -0.329 N 
ATOM     47 HE21 GLN A   3     -57.110  -8.493  24.125  0.00  0.00    +0.145 HD
ATOM     48 HE22 GLN A   3     -57.029  -9.477  22.618  0.00  0.00    +0.145 HD
ENDBRANCH  43  44
ENDBRANCH  42  43
ENDBRANCH  16  42
ENDBRANCH  12  16
ENDBRANCH  11  14
BRANCH  11  49
ATOM     49  CB  SER A   4     -52.647 -16.323  24.307  0.00  0.00    +0.166 C 
BRANCH  49  50
ATOM     50  OG  SER A   4     -51.797 -17.245  24.967  0.00  0.00    -0.380 OA
ATOM     51  H   SER A   4     -51.975 -17.218  25.940  0.00  0.00    +0.211 HD
ENDBRANCH  49  50
ENDBRANCH  11  49
ENDBRANCH   7  11
ENDBRANCH   6   8
BRANCH   6  52
ATOM     52  CB  SER A   5     -47.768 -15.885  25.372  0.00  0.00    +0.166 C 
BRANCH  52  53
ATOM     53  OG  SER A   5     -46.418 -15.929  24.934  0.00  0.00    -0.380 OA
ATOM     54  H   SER A   5     -46.058 -15.008  24.885  0.00  0.00    +0.211 HD
ENDBRANCH  52  53
ENDBRANCH   6  52
ENDBRANCH   2   6
ENDBRANCH   1   4
BRANCH   1  55
ATOM     55  C   ILE A   6     -45.904 -15.239  20.948  0.00  0.00    +0.241 C 
ATOM     56  N   TYR A   7     -45.044 -15.079  21.953  0.00  0.00    -0.297 N 
ATOM     57  H   TYR A   7     -45.262 -14.423  22.730  0.00  0.00    +0.150 HD
ATOM     58  O   ILE A   6     -45.696 -16.041  20.040  0.00  0.00    -0.273 OA
BRANCH  56  59
ATOM     59  CA  TYR A   7     -43.785 -15.837  21.954  0.00  0.00    +0.153 C 
BRANCH  59  60
ATOM     60  C   TYR A   7     -44.057 -17.347  22.063  0.00  0.00    +0.241 C 
ATOM     61  N   ASP A   8     -45.048 -17.710  22.875  0.00  0.00    -0.297 N 
ATOM     62  H   ASP A   8     -45.549 -16.981  23.422  0.00  0.00    +0.150 HD
ATOM     63  O   TYR A   7     -43.379 -18.159  21.424  0.00  0.00    -0.273 OA
BRANCH  61  64
ATOM     64  CA  ASP A   8     -45.447 -19.103  23.015  0.00  0.00    +0.160 C 
BRANCH  64  65
ATOM     65  C   ASP A   8     -45.922 -19.685  21.679  0.00  0.00    +0.241 C 
ATOM     66  O   ASP A   8     -45.512 -20.774  21.268  0.00  0.00    -0.273 OA
ATOM     67  N   HIS A   9     -46.792 -18.950  21.007  0.00  0.00    -0.297 N 
ATOM     68  H   HIS A   9     -47.169 -18.079  21.432  0.00  0.00    +0.150 HD
BRANCH  67  69
ATOM     69  CA  HIS A   9     -47.225 -19.350  19.678  0.00  0.00    +0.155 C 
BRANCH  69  70
ATOM     70  C   HIS A   9     -46.044 -19.520  18.738  0.00  0.00    +0.241 C 
ATOM     71  N   ILE A  10     -45.141 -18.548  18.737  0.00  0.00    -0.297 N 
ATOM     72  H   ILE A  10     -45.266 -17.731  19.368  0.00  0.00    +0.150 HD
ATOM     73  O   HIS A   9     -45.952 -20.506  18.018  0.00  0.00    -0.273 OA
BRANCH  71  74
ATOM     74  CA  ILE A  10     -43.976 -18.609  17.864  0.00  0.00    +0.149 C 
BRANCH  74  75
ATOM     75  C   ILE A  10     -43.166 -19.903  18.078  0.00  0.00    +0.241 C 
ATOM     76  N   GLU A  11     -42.884 -20.266  19.330  0.00  0.00    -0.298 N 
ATOM     77  H   GLU A  11     -43.234 -19.701  20.130  0.00  0.00    +0.150 HD
ATOM     78  O   ILE A  10     -42.820 -20.575  17.121  0.00  0.00    -0.273 OA
BRANCH  76  79
ATOM     79  CA  GLU A  11     -42.080 -21.464  19.572  0.00  0.00    +0.137 C 
BRANCH  79  80
ATOM     80  C   GLU A  11     -42.793 -22.743  19.145  0.00  0.00    +0.227 C 
ATOM     81  O   GLU A  11     -42.176 -23.632  18.550  0.00  0.00    -0.286 OA
ENDBRANCH  79  80
BRANCH  79  82
ATOM     82  CB  GLU A  11     -41.677 -21.551  21.047  0.00  0.00    +0.039 C 
BRANCH  82  83
ATOM     83  CG  GLU A  11     -40.728 -20.441  21.452  0.00  0.00    +0.116 C 
BRANCH  83  84
ATOM     84  CD  GLU A  11     -40.100 -20.666  22.822  0.00  0.00    +0.365 C 
ATOM     85  OE2 GLU A  11     -40.824 -21.066  23.753  0.00  0.00    -0.246 OA
ATOM     86  OE1 GLU A  11     -38.884 -20.425  22.956  0.00  0.00    -0.246 OA
ENDBRANCH  83  84
ENDBRANCH  82  83
ENDBRANCH  79  82
ENDBRANCH  76  79
ENDBRANCH  74  75
BRANCH  74  87
ATOM     87  CB  ILE A  10     -43.067 -17.376  18.066  0.00  0.00    +0.027 C 
ATOM     88  CG2 ILE A  10     -41.695 -17.595  17.396  0.00  0.00    +0.002 C 
BRANCH  87  89
ATOM     89  CG1 ILE A  10     -43.746 -16.130  17.482  0.00  0.00    +0.002 C 
ATOM     90  CD1 ILE A  10     -43.928 -16.199  15.946  0.00  0.00    +0.000 C 
ENDBRANCH  87  89
ENDBRANCH  74  87
ENDBRANCH  71  74
ENDBRANCH  69  70
BRANCH  69  91
ATOM     91  CB  HIS A   9     -48.195 -18.333  19.096  0.00  0.00    +0.076 C 
BRANCH  91  92
ATOM     92  CG  HIS A   9     -48.513 -18.588  17.656  0.00  0.00    +0.082 A 
ATOM     93  ND1 HIS A   9     -49.382 -19.577  17.253  0.00  0.00    -0.227 NA
ATOM     94  CE1 HIS A   9     -49.457 -19.584  15.932  0.00  0.00    +0.199 A 
ATOM     95  NE2 HIS A   9     -48.655 -18.643  15.467  0.00  0.00    -0.221 NA
ATOM     96  CD2 HIS A   9     -48.046 -18.011  16.526  0.00  0.00    +0.115 A 
ENDBRANCH  91  92
ENDBRANCH  69  91
ENDBRANCH  67  69
ENDBRANCH  64  65
BRANCH  64  97
ATOM     97  CB  ASP A   8     -46.553 -19.237  24.057  0.00  0.00    +0.143 C 
BRANCH  97  98
ATOM     98  CG  ASP A   8     -46.518 -20.570  24.751  0.00  0.00    +0.367 C 
ATOM     99  OD2 ASP A   8     -45.598 -20.773  25.570  0.00  0.00    -0.246 OA
ATOM    100  OD1 ASP A   8     -47.383 -21.421  24.458  0.00  0.00    -0.246 OA
ENDBRANCH  97  98
ENDBRANCH  64  97
ENDBRANCH  61  64
ENDBRANCH  59  60
BRANCH  59 101
ATOM    101  CB  TYR A   7     -42.859 -15.377  23.098  0.00  0.00    +0.055 C 
BRANCH 101 102
ATOM    102  CG  TYR A   7     -42.022 -14.153  22.768  0.00  0.00    -0.020 A 
ATOM    103  CD2 TYR A   7     -40.946 -13.793  23.571  0.00  0.00    -0.001 A 
ATOM    104  CE2 TYR A   7     -40.170 -12.671  23.290  0.00  0.00    +0.036 A 
ATOM    105  CZ  TYR A   7     -40.455 -11.899  22.176  0.00  0.00    +0.134 A 
ATOM    106  CE1 TYR A   7     -41.521 -12.238  21.346  0.00  0.00    +0.036 A 
ATOM    107  CD1 TYR A   7     -42.295 -13.368  21.643  0.00  0.00    -0.001 A 
BRANCH 105 108
ATOM    108  OH  TYR A   7     -39.669 -10.792  21.913  0.00  0.00    -0.506 OA
ATOM    109  HH  TYR A   7     -39.994 -10.346  21.091  0.00  0.00    +0.292 HD
ENDBRANCH 105 108
ENDBRANCH 101 102
ENDBRANCH  59 101
ENDBRANCH  56  59
ENDBRANCH   1  55
BRANCH   1 110
ATOM    110  CB  ILE A   6     -46.945 -13.010  20.320  0.00  0.00    +0.027 C 
ATOM    111  CG2 ILE A   6     -46.171 -13.128  19.012  0.00  0.00    +0.002 C 
BRANCH 110 112
ATOM    112  CG1 ILE A   6     -48.282 -12.319  20.070  0.00  0.00    +0.002 C 
ATOM    113  CD1 ILE A   6     -49.139 -13.062  19.047  0.00  0.00    +0.000 C 
ENDBRANCH 110 112
ENDBRANCH   1 110
TORSDOF 47
REMARK  Name = ../refined-set-2016/4u0w/4u0w_pocket.pdb
REMARK  261 active torsions:
REMARK  status: ('A' for Active; 'I' for Inactive)
REMARK    1  A    between atoms: _1  and  _3
REMARK    2  A    between atoms: _3  and  _4
REMARK    3  A    between atoms: _3  and  _6
REMARK    4  A    between atoms: _6  and  _7
REMARK    5  A    between atoms: _7  and  _8
REMARK    6  A    between atoms: _13  and  _15
REMARK    7  A    between atoms: _15  and  _16
REMARK    8  A    between atoms: _15  and  _18
REMARK    9  A    between atoms: _18  and  _19
REMARK   10  A    between atoms: _22  and  _24
REMARK   11  A    between atoms: _24  and  _25
REMARK   12  A    between atoms: _24  and  _27
REMARK   13  A    between atoms: _27  and  _28
REMARK   14  A    between atoms: _31  and  _33
REMARK   15  A    between atoms: _33  and  _34
REMARK   16  A    between atoms: _33  and  _36
REMARK   17  A    between atoms: _36  and  _37
REMARK   18  A    between atoms: _40  and  _42
REMARK   19  A    between atoms: _42  and  _43
REMARK   20  A    between atoms: _42  and  _45
REMARK   21  A    between atoms: _45  and  _46
REMARK   22  A    between atoms: _48  and  _50
REMARK   23  A    between atoms: _50  and  _51
REMARK   24  A    between atoms: _50  and  _53
REMARK   25  A    between atoms: _53  and  _54
REMARK   26  A    between atoms: _60  and  _62
REMARK   27  A    between atoms: _62  and  _63
REMARK   28  A    between atoms: _62  and  _65
REMARK   29  A    between atoms: _65  and  _66
REMARK   30  A    between atoms: _69  and  _71
REMARK   31  A    between atoms: _71  and  _72
REMARK   32  A    between atoms: _71  and  _74
REMARK   33  A    between atoms: _74  and  _75
REMARK   34  A    between atoms: _75  and  _76
REMARK   35  A    between atoms: _79  and  _81
REMARK   36  A    between atoms: _81  and  _82
REMARK   37  A    between atoms: _81  and  _84
REMARK   38  A    between atoms: _84  and  _85
REMARK   39  A    between atoms: _88  and  _90
REMARK   40  A    between atoms: _90  and  _91
REMARK   41  A    between atoms: _90  and  _93
REMARK   42  A    between atoms: _93  and  _94
REMARK   43  A    between atoms: _94  and  _95
REMARK   44  A    between atoms: _97  and  _99
REMARK   45  A    between atoms: _99  and  _100
REMARK   46  A    between atoms: _99  and  _102
REMARK   47  A    between atoms: _102  and  _103
REMARK   48  A    between atoms: _103  and  _104
REMARK   49  A    between atoms: _104  and  _105
REMARK   50  A    between atoms: _105  and  _106
REMARK   51  A    between atoms: _111  and  _112
REMARK   52  A    between atoms: _117  and  _119
REMARK   53  A    between atoms: _119  and  _120
REMARK   54  A    between atoms: _122  and  _124
REMARK   55  A    between atoms: _124  and  _125
REMARK   56  A    between atoms: _124  and  _127
REMARK   57  A    between atoms: _127  and  _128
REMARK   58  A    between atoms: _130  and  _132
REMARK   59  A    between atoms: _132  and  _133
REMARK   60  A    between atoms: _132  and  _135
REMARK   61  A    between atoms: _135  and  _136
REMARK   62  A    between atoms: _139  and  _141
REMARK   63  A    between atoms: _141  and  _142
REMARK   64  A    between atoms: _141  and  _144
REMARK   65  A    between atoms: _144  and  _145
REMARK   66  A    between atoms: _145  and  _146
REMARK   67  A    between atoms: _146  and  _147
REMARK   68  A    between atoms: _156  and  _158
REMARK   69  A    between atoms: _158  and  _159
REMARK   70  A    between atoms: _158  and  _161
REMARK   71  A    between atoms: _161  and  _162
REMARK   72  A    between atoms: _162  and  _163
REMARK   73  A    between atoms: _163  and  _164
REMARK   74  A    between atoms: _173  and  _175
REMARK   75  A    between atoms: _175  and  _176
REMARK   76  A    between atoms: _179  and  _181
REMARK   77  A    between atoms: _181  and  _182
REMARK   78  A    between atoms: _181  and  _184
REMARK   79  A    between atoms: _184  and  _185
REMARK   80  A    between atoms: _188  and  _190
REMARK   81  A    between atoms: _190  and  _191
REMARK   82  A    between atoms: _190  and  _193
REMARK   83  A    between atoms: _193  and  _194
REMARK   84  A    between atoms: _194  and  _195
REMARK   85  A    between atoms: _198  and  _200
REMARK   86  A    between atoms: _200  and  _201
REMARK   87  A    between atoms: _200  and  _203
REMARK   88  A    between atoms: _203  and  _204
REMARK   89  A    between atoms: _206  and  _208
REMARK   90  A    between atoms: _208  and  _209
REMARK   91  A    between atoms: _208  and  _211
REMARK   92  A    between atoms: _211  and  _212
REMARK   93  A    between atoms: _214  and  _216
REMARK   94  A    between atoms: _216  and  _217
REMARK   95  A    between atoms: _216  and  _219
REMARK   96  A    between atoms: _219  and  _220
REMARK   97  A    between atoms: _225  and  _227
REMARK   98  A    between atoms: _227  and  _228
REMARK   99  A    between atoms: _227  and  _230
REMARK  100  A    between atoms: _230  and  _231
REMARK  101  A    between atoms: _234  and  _236
REMARK  102  A    between atoms: _236  and  _237
REMARK  103  A    between atoms: _236  and  _239
REMARK  104  A    between atoms: _239  and  _240
REMARK  105  A    between atoms: _245  and  _247
REMARK  106  A    between atoms: _247  and  _248
REMARK  107  A    between atoms: _247  and  _250
REMARK  108  A    between atoms: _250  and  _251
REMARK  109  A    between atoms: _257  and  _259
REMARK  110  A    between atoms: _259  and  _260
REMARK  111  A    between atoms: _259  and  _262
REMARK  112  A    between atoms: _262  and  _263
REMARK  113  A    between atoms: _263  and  _264
REMARK  114  A    between atoms: _269  and  _271
REMARK  115  A    between atoms: _271  and  _272
REMARK  116  A    between atoms: _271  and  _274
REMARK  117  A    between atoms: _274  and  _275
REMARK  118  A    between atoms: _277  and  _279
REMARK  119  A    between atoms: _279  and  _280
REMARK  120  A    between atoms: _279  and  _282
REMARK  121  A    between atoms: _282  and  _283
REMARK  122  A    between atoms: _285  and  _287
REMARK  123  A    between atoms: _287  and  _288
REMARK  124  A    between atoms: _287  and  _290
REMARK  125  A    between atoms: _290  and  _291
REMARK  126  A    between atoms: _294  and  _296
REMARK  127  A    between atoms: _296  and  _297
REMARK  128  A    between atoms: _296  and  _299
REMARK  129  A    between atoms: _299  and  _300
REMARK  130  A    between atoms: _305  and  _306
REMARK  131  A    between atoms: _308  and  _310
REMARK  132  A    between atoms: _310  and  _311
REMARK  133  A    between atoms: _310  and  _313
REMARK  134  A    between atoms: _313  and  _314
REMARK  135  A    between atoms: _317  and  _319
REMARK  136  A    between atoms: _319  and  _320
REMARK  137  A    between atoms: _319  and  _322
REMARK  138  A    between atoms: _322  and  _323
REMARK  139  A    between atoms: _328  and  _330
REMARK  140  A    between atoms: _330  and  _331
REMARK  141  A    between atoms: _330  and  _333
REMARK  142  A    between atoms: _333  and  _334
REMARK  143  A    between atoms: _337  and  _339
REMARK  144  A    between atoms: _339  and  _340
REMARK  145  A    between atoms: _339  and  _342
REMARK  146  A    between atoms: _342  and  _343
REMARK  147  A    between atoms: _343  and  _344
REMARK  148  A    between atoms: _347  and  _349
REMARK  149  A    between atoms: _349  and  _350
REMARK  150  A    between atoms: _349  and  _352
REMARK  151  A    between atoms: _352  and  _353
REMARK  152  A    between atoms: _356  and  _358
REMARK  153  A    between atoms: _358  and  _359
REMARK  154  A    between atoms: _362  and  _364
REMARK  155  A    between atoms: _364  and  _365
REMARK  156  A    between atoms: _364  and  _367
REMARK  157  A    between atoms: _367  and  _368
REMARK  158  A    between atoms: _368  and  _369
REMARK  159  A    between atoms: _369  and  _370
REMARK  160  A    between atoms: _370  and  _371
REMARK  161  A    between atoms: _375  and  _377
REMARK  162  A    between atoms: _377  and  _378
REMARK  163  A    between atoms: _377  and  _380
REMARK  164  A    between atoms: _380  and  _381
REMARK  165  A    between atoms: _381  and  _382
REMARK  166  A    between atoms: _387  and  _389
REMARK  167  A    between atoms: _389  and  _390
REMARK  168  A    between atoms: _389  and  _392
REMARK  169  A    between atoms: _392  and  _393
REMARK  170  A    between atoms: _393  and  _394
REMARK  171  A    between atoms: _397  and  _399
REMARK  172  A    between atoms: _399  and  _400
REMARK  173  A    between atoms: _399  and  _402
REMARK  174  A    between atoms: _402  and  _403
REMARK  175  A    between atoms: _406  and  _408
REMARK  176  A    between atoms: _408  and  _409
REMARK  177  A    between atoms: _408  and  _411
REMARK  178  A    between atoms: _411  and  _412
REMARK  179  A    between atoms: _415  and  _417
REMARK  180  A    between atoms: _417  and  _418
REMARK  181  A    between atoms: _417  and  _420
REMARK  182  A    between atoms: _420  and  _421
REMARK  183  A    between atoms: _424  and  _426
REMARK  184  A    between atoms: _426  and  _427
REMARK  185  A    between atoms: _426  and  _429
REMARK  186  A    between atoms: _429  and  _430
REMARK  187  A    between atoms: _433  and  _435
REMARK  188  A    between atoms: _435  and  _436
REMARK  189  A    between atoms: _435  and  _438
REMARK  190  A    between atoms: _438  and  _439
REMARK  191  A    between atoms: _439  and  _440
REMARK  192  A    between atoms: _440  and  _441
REMARK  193  A    between atoms: _441  and  _442
REMARK  194  A    between atoms: _446  and  _448
REMARK  195  A    between atoms: _448  and  _449
REMARK  196  A    between atoms: _448  and  _451
REMARK  197  A    between atoms: _451  and  _452
REMARK  198  A    between atoms: _452  and  _453
REMARK  199  A    between atoms: _453  and  _454
REMARK  200  A    between atoms: _463  and  _465
REMARK  201  A    between atoms: _465  and  _466
REMARK  202  A    between atoms: _465  and  _468
REMARK  203  A    between atoms: _468  and  _469
REMARK  204  A    between atoms: _472  and  _474
REMARK  205  A    between atoms: _474  and  _475
REMARK  206  A    between atoms: _474  and  _477
REMARK  207  A    between atoms: _477  and  _478
REMARK  208  A    between atoms: _481  and  _483
REMARK  209  A    between atoms: _483  and  _484
REMARK  210  A    between atoms: _483  and  _486
REMARK  211  A    between atoms: _486  and  _487
REMARK  212  A    between atoms: _493  and  _495
REMARK  213  A    between atoms: _495  and  _496
REMARK  214  A    between atoms: _495  and  _498
REMARK  215  A    between atoms: _498  and  _499
REMARK  216  A    between atoms: _499  and  _500
REMARK  217  A    between atoms: _503  and  _505
REMARK  218  A    between atoms: _505  and  _506
REMARK  219  A    between atoms: _505  and  _508
REMARK  220  A    between atoms: _508  and  _509
REMARK  221  A    between atoms: _514  and  _516
REMARK  222  A    between atoms: _516  and  _517
REMARK  223  A    between atoms: _520  and  _522
REMARK  224  A    between atoms: _522  and  _523
REMARK  225  A    between atoms: _522  and  _525
REMARK  226  A    between atoms: _525  and  _526
REMARK  227  A    between atoms: _526  and  _527
REMARK  228  A    between atoms: _527  and  _528
REMARK  229  A    between atoms: _528  and  _529
REMARK  230  A    between atoms: _533  and  _535
REMARK  231  A    between atoms: _535  and  _536
REMARK  232  A    between atoms: _535  and  _538
REMARK  233  A    between atoms: _538  and  _539
REMARK  234  A    between atoms: _541  and  _543
REMARK  235  A    between atoms: _543  and  _544
REMARK  236  A    between atoms: _543  and  _546
REMARK  237  A    between atoms: _549  and  _551
REMARK  238  A    between atoms: _551  and  _552
REMARK  239  A    between atoms: _551  and  _554
REMARK  240  A    between atoms: _554  and  _555
REMARK  241  A    between atoms: _560  and  _561
REMARK  242  A    between atoms: _563  and  _565
REMARK  243  A    between atoms: _565  and  _566
REMARK  244  A    between atoms: _565  and  _568
REMARK  245  A    between atoms: _568  and  _569
REMARK  246  A    between atoms: _574  and  _575
REMARK  247  A    between atoms: _577  and  _579
REMARK  248  A    between atoms: _579  and  _580
REMARK  249  A    between atoms: _579  and  _582
REMARK  250  A    between atoms: _582  and  _583
REMARK  251  A    between atoms: _589  and  _591
REMARK  252  A    between atoms: _591  and  _592
REMARK  253  A    between atoms: _591  and  _594
REMARK  254  A    between atoms: _594  and  _595
REMARK  255  A    between atoms: _595  and  _596
REMARK  256  A    between atoms: _598  and  _600
REMARK  257  A    between atoms: _600  and  _601
REMARK  258  A    between atoms: _600  and  _603
REMARK  259  A    between atoms: _603  and  _604
REMARK  260  A    between atoms: _604  and  _605
REMARK  261  A    between atoms: _605  and  _606
REMARK                            x       y       z     vdW  Elec       q    Type
REMARK                         _______ _______ _______ _____ _____    ______ ____
ROOT
ATOM      1  CA  ILE A   1     -36.711 -18.230  20.866  0.00  0.00    +0.133 C 
ENDROOT
BRANCH   1   2
ATOM      2  N   ILE A   1     -37.159 -19.608  20.980  0.00  0.00    -0.239 NA
ATOM      3  H   ILE A   1     -37.926 -19.837  21.644  0.00  0.00    +0.142 HD
ENDBRANCH   1   2
BRANCH   1   4
ATOM      4  C   ILE A   1     -35.382 -18.128  21.612  0.00  0.00    +0.224 C 
ATOM      5  O   ILE A   1     -35.268 -18.624  22.725  0.00  0.00    -0.287 OA
ENDBRANCH   1   4
BRANCH   1   6
ATOM      6  CB  ILE A   1     -37.758 -17.272  21.435  0.00  0.00    +0.023 C 
ATOM      7  CG2 ILE A   1     -37.260 -15.841  21.406  0.00  0.00    +0.002 C 
BRANCH   6   8
ATOM      8  CG1 ILE A   1     -39.045 -17.383  20.616  0.00  0.00    +0.002 C 
ATOM      9  CD1 ILE A   1     -40.215 -16.664  21.212  0.00  0.00    +0.000 C 
ENDBRANCH   6   8
ENDBRANCH   1   6
TORSDOF 4
REMARK  Name = ../refined-set-2016/4u0w/4u0w_pocket.pdb
REMARK  261 active torsions:
REMARK  status: ('A' for Active; 'I' for Inactive)
REMARK    1  A    between atoms: _1  and  _3
REMARK    2  A    between atoms: _3  and  _4
REMARK    3  A    between atoms: _3  and  _6
REMARK    4  A    between atoms: _6  and  _7
REMARK    5  A    between atoms: _7  and  _8
REMARK    6  A    between atoms: _13  and  _15
REMARK    7  A    between atoms: _15  and  _16
REMARK    8  A    between atoms: _15  and  _18
REMARK    9  A    between atoms: _18  and  _19
REMARK   10  A    between atoms: _22  and  _24
REMARK   11  A    between atoms: _24  and  _25
REMARK   12  A    between atoms: _24  and  _27
REMARK   13  A    between atoms: _27  and  _28
REMARK   14  A    between atoms: _31  and  _33
REMARK   15  A    between atoms: _33  and  _34
REMARK   16  A    between atoms: _33  and  _36
REMARK   17  A    between atoms: _36  and  _37
REMARK   18  A    between atoms: _40  and  _42
REMARK   19  A    between atoms: _42  and  _43
REMARK   20  A    between atoms: _42  and  _45
REMARK   21  A    between atoms: _45  and  _46
REMARK   22  A    between atoms: _48  and  _50
REMARK   23  A    between atoms: _50  and  _51
REMARK   24  A    between atoms: _50  and  _53
REMARK   25  A    between atoms: _53  and  _54
REMARK   26  A    between atoms: _60  and  _62
REMARK   27  A    between atoms: _62  and  _63
REMARK   28  A    between atoms: _62  and  _65
REMARK   29  A    between atoms: _65  and  _66
REMARK   30  A    between atoms: _69  and  _71
REMARK   31  A    between atoms: _71  and  _72
REMARK   32  A    between atoms: _71  and  _74
REMARK   33  A    between atoms: _74  and  _75
REMARK   34  A    between atoms: _75  and  _76
REMARK   35  A    between atoms: _79  and  _81
REMARK   36  A    between atoms: _81  and  _82
REMARK   37  A    between atoms: _81  and  _84
REMARK   38  A    between atoms: _84  and  _85
REMARK   39  A    between atoms: _88  and  _90
REMARK   40  A    between atoms: _90  and  _91
REMARK   41  A    between atoms: _90  and  _93
REMARK   42  A    between atoms: _93  and  _94
REMARK   43  A    between atoms: _94  and  _95
REMARK   44  A    between atoms: _97  and  _99
REMARK   45  A    between atoms: _99  and  _100
REMARK   46  A    between atoms: _99  and  _102
REMARK   47  A    between atoms: _102  and  _103
REMARK   48  A    between atoms: _103  and  _104
REMARK   49  A    between atoms: _104  and  _105
REMARK   50  A    between atoms: _105  and  _106
REMARK   51  A    between atoms: _111  and  _112
REMARK   52  A    between atoms: _117  and  _119
REMARK   53  A    between atoms: _119  and  _120
REMARK   54  A    between atoms: _122  and  _124
REMARK   55  A    between atoms: _124  and  _125
REMARK   56  A    between atoms: _124  and  _127
REMARK   57  A    between atoms: _127  and  _128
REMARK   58  A    between atoms: _130  and  _132
REMARK   59  A    between atoms: _132  and  _133
REMARK   60  A    between atoms: _132  and  _135
REMARK   61  A    between atoms: _135  and  _136
REMARK   62  A    between atoms: _139  and  _141
REMARK   63  A    between atoms: _141  and  _142
REMARK   64  A    between atoms: _141  and  _144
REMARK   65  A    between atoms: _144  and  _145
REMARK   66  A    between atoms: _145  and  _146
REMARK   67  A    between atoms: _146  and  _147
REMARK   68  A    between atoms: _156  and  _158
REMARK   69  A    between atoms: _158  and  _159
REMARK   70  A    between atoms: _158  and  _161
REMARK   71  A    between atoms: _161  and  _162
REMARK   72  A    between atoms: _162  and  _163
REMARK   73  A    between atoms: _163  and  _164
REMARK   74  A    between atoms: _173  and  _175
REMARK   75  A    between atoms: _175  and  _176
REMARK   76  A    between atoms: _179  and  _181
REMARK   77  A    between atoms: _181  and  _182
REMARK   78  A    between atoms: _181  and  _184
REMARK   79  A    between atoms: _184  and  _185
REMARK   80  A    between atoms: _188  and  _190
REMARK   81  A    between atoms: _190  and  _191
REMARK   82  A    between atoms: _190  and  _193
REMARK   83  A    between atoms: _193  and  _194
REMARK   84  A    between atoms: _194  and  _195
REMARK   85  A    between atoms: _198  and  _200
REMARK   86  A    between atoms: _200  and  _201
REMARK   87  A    between atoms: _200  and  _203
REMARK   88  A    between atoms: _203  and  _204
REMARK   89  A    between atoms: _206  and  _208
REMARK   90  A    between atoms: _208  and  _209
REMARK   91  A    between atoms: _208  and  _211
REMARK   92  A    between atoms: _211  and  _212
REMARK   93  A    between atoms: _214  and  _216
REMARK   94  A    between atoms: _216  and  _217
REMARK   95  A    between atoms: _216  and  _219
REMARK   96  A    between atoms: _219  and  _220
REMARK   97  A    between atoms: _225  and  _227
REMARK   98  A    between atoms: _227  and  _228
REMARK   99  A    between atoms: _227  and  _230
REMARK  100  A    between atoms: _230  and  _231
REMARK  101  A    between atoms: _234  and  _236
REMARK  102  A    between atoms: _236  and  _237
REMARK  103  A    between atoms: _236  and  _239
REMARK  104  A    between atoms: _239  and  _240
REMARK  105  A    between atoms: _245  and  _247
REMARK  106  A    between atoms: _247  and  _248
REMARK  107  A    between atoms: _247  and  _250
REMARK  108  A    between atoms: _250  and  _251
REMARK  109  A    between atoms: _257  and  _259
REMARK  110  A    between atoms: _259  and  _260
REMARK  111  A    between atoms: _259  and  _262
REMARK  112  A    between atoms: _262  and  _263
REMARK  113  A    between atoms: _263  and  _264
REMARK  114  A    between atoms: _269  and  _271
REMARK  115  A    between atoms: _271  and  _272
REMARK  116  A    between atoms: _271  and  _274
REMARK  117  A    between atoms: _274  and  _275
REMARK  118  A    between atoms: _277  and  _279
REMARK  119  A    between atoms: _279  and  _280
REMARK  120  A    between atoms: _279  and  _282
REMARK  121  A    between atoms: _282  and  _283
REMARK  122  A    between atoms: _285  and  _287
REMARK  123  A    between atoms: _287  and  _288
REMARK  124  A    between atoms: _287  and  _290
REMARK  125  A    between atoms: _290  and  _291
REMARK  126  A    between atoms: _294  and  _296
REMARK  127  A    between atoms: _296  and  _297
REMARK  128  A    between atoms: _296  and  _299
REMARK  129  A    between atoms: _299  and  _300
REMARK  130  A    between atoms: _305  and  _306
REMARK  131  A    between atoms: _308  and  _310
REMARK  132  A    between atoms: _310  and  _311
REMARK  133  A    between atoms: _310  and  _313
REMARK  134  A    between atoms: _313  and  _314
REMARK  135  A    between atoms: _317  and  _319
REMARK  136  A    between atoms: _319  and  _320
REMARK  137  A    between atoms: _319  and  _322
REMARK  138  A    between atoms: _322  and  _323
REMARK  139  A    between atoms: _328  and  _330
REMARK  140  A    between atoms: _330  and  _331
REMARK  141  A    between atoms: _330  and  _333
REMARK  142  A    between atoms: _333  and  _334
REMARK  143  A    between atoms: _337  and  _339
REMARK  144  A    between atoms: _339  and  _340
REMARK  145  A    between atoms: _339  and  _342
REMARK  146  A    between atoms: _342  and  _343
REMARK  147  A    between atoms: _343  and  _344
REMARK  148  A    between atoms: _347  and  _349
REMARK  149  A    between atoms: _349  and  _350
REMARK  150  A    between atoms: _349  and  _352
REMARK  151  A    between atoms: _352  and  _353
REMARK  152  A    between atoms: _356  and  _358
REMARK  153  A    between atoms: _358  and  _359
REMARK  154  A    between atoms: _362  and  _364
REMARK  155  A    between atoms: _364  and  _365
REMARK  156  A    between atoms: _364  and  _367
REMARK  157  A    between atoms: _367  and  _368
REMARK  158  A    between atoms: _368  and  _369
REMARK  159  A    between atoms: _369  and  _370
REMARK  160  A    between atoms: _370  and  _371
REMARK  161  A    between atoms: _375  and  _377
REMARK  162  A    between atoms: _377  and  _378
REMARK  163  A    between atoms: _377  and  _380
REMARK  164  A    between atoms: _380  and  _381
REMARK  165  A    between atoms: _381  and  _382
REMARK  166  A    between atoms: _387  and  _389
REMARK  167  A    between atoms: _389  and  _390
REMARK  168  A    between atoms: _389  and  _392
REMARK  169  A    between atoms: _392  and  _393
REMARK  170  A    between atoms: _393  and  _394
REMARK  171  A    between atoms: _397  and  _399
REMARK  172  A    between atoms: _399  and  _400
REMARK  173  A    between atoms: _399  and  _402
REMARK  174  A    between atoms: _402  and  _403
REMARK  175  A    between atoms: _406  and  _408
REMARK  176  A    between atoms: _408  and  _409
REMARK  177  A    between atoms: _408  and  _411
REMARK  178  A    between atoms: _411  and  _412
REMARK  179  A    between atoms: _415  and  _417
REMARK  180  A    between atoms: _417  and  _418
REMARK  181  A    between atoms: _417  and  _420
REMARK  182  A    between atoms: _420  and  _421
REMARK  183  A    between atoms: _424  and  _426
REMARK  184  A    between atoms: _426  and  _427
REMARK  185  A    between atoms: _426  and  _429
REMARK  186  A    between atoms: _429  and  _430
REMARK  187  A    between atoms: _433  and  _435
REMARK  188  A    between atoms: _435  and  _436
REMARK  189  A    between atoms: _435  and  _438
REMARK  190  A    between atoms: _438  and  _439
REMARK  191  A    between atoms: _439  and  _440
REMARK  192  A    between atoms: _440  and  _441
REMARK  193  A    between atoms: _441  and  _442
REMARK  194  A    between atoms: _446  and  _448
REMARK  195  A    between atoms: _448  and  _449
REMARK  196  A    between atoms: _448  and  _451
REMARK  197  A    between atoms: _451  and  _452
REMARK  198  A    between atoms: _452  and  _453
REMARK  199  A    between atoms: _453  and  _454
REMARK  200  A    between atoms: _463  and  _465
REMARK  201  A    between atoms: _465  and  _466
REMARK  202  A    between atoms: _465  and  _468
REMARK  203  A    between atoms: _468  and  _469
REMARK  204  A    between atoms: _472  and  _474
REMARK  205  A    between atoms: _474  and  _475
REMARK  206  A    between atoms: _474  and  _477
REMARK  207  A    between atoms: _477  and  _478
REMARK  208  A    between atoms: _481  and  _483
REMARK  209  A    between atoms: _483  and  _484
REMARK  210  A    between atoms: _483  and  _486
REMARK  211  A    between atoms: _486  and  _487
REMARK  212  A    between atoms: _493  and  _495
REMARK  213  A    between atoms: _495  and  _496
REMARK  214  A    between atoms: _495  and  _498
REMARK  215  A    between atoms: _498  and  _499
REMARK  216  A    between atoms: _499  and  _500
REMARK  217  A    between atoms: _503  and  _505
REMARK  218  A    between atoms: _505  and  _506
REMARK  219  A    between atoms: _505  and  _508
REMARK  220  A    between atoms: _508  and  _509
REMARK  221  A    between atoms: _514  and  _516
REMARK  222  A    between atoms: _516  and  _517
REMARK  223  A    between atoms: _520  and  _522
REMARK  224  A    between atoms: _522  and  _523
REMARK  225  A    between atoms: _522  and  _525
REMARK  226  A    between atoms: _525  and  _526
REMARK  227  A    between atoms: _526  and  _527
REMARK  228  A    between atoms: _527  and  _528
REMARK  229  A    between atoms: _528  and  _529
REMARK  230  A    between atoms: _533  and  _535
REMARK  231  A    between atoms: _535  and  _536
REMARK  232  A    between atoms: _535  and  _538
REMARK  233  A    between atoms: _538  and  _539
REMARK  234  A    between atoms: _541  and  _543
REMARK  235  A    between atoms: _543  and  _544
REMARK  236  A    between atoms: _543  and  _546
REMARK  237  A    between atoms: _549  and  _551
REMARK  238  A    between atoms: _551  and  _552
REMARK  239  A    between atoms: _551  and  _554
REMARK  240  A    between atoms: _554  and  _555
REMARK  241  A    between atoms: _560  and  _561
REMARK  242  A    between atoms: _563  and  _565
REMARK  243  A    between atoms: _565  and  _566
REMARK  244  A    between atoms: _565  and  _568
REMARK  245  A    between atoms: _568  and  _569
REMARK  246  A    between atoms: _574  and  _575
REMARK  247  A    between atoms: _577  and  _579
REMARK  248  A    between atoms: _579  and  _580
REMARK  249  A    between atoms: _579  and  _582
REMARK  250  A    between atoms: _582  and  _583
REMARK  251  A    between atoms: _589  and  _591
REMARK  252  A    between atoms: _591  and  _592
REMARK  253  A    between atoms: _591  and  _594
REMARK  254  A    between atoms: _594  and  _595
REMARK  255  A    between atoms: _595  and  _596
REMARK  256  A    between atoms: _598  and  _600
REMARK  257  A    between atoms: _600  and  _601
REMARK  258  A    between atoms: _600  and  _603
REMARK  259  A    between atoms: _603  and  _604
REMARK  260  A    between atoms: _604  and  _605
REMARK  261  A    between atoms: _605  and  _606
REMARK                            x       y       z     vdW  Elec       q    Type
REMARK                         _______ _______ _______ _____ _____    ______ ____
ROOT
ATOM      1  CA  GLN A   3     -32.691  -4.141  21.984  0.00  0.00    +0.149 C 
ENDROOT
BRANCH   1   3
ATOM      2  C   LYS A   2     -32.032  -6.037  20.568  0.00  0.00    +0.241 C 
ATOM      3  N   GLN A   3     -31.766  -5.219  21.594  0.00  0.00    -0.297 N 
ATOM      4  H   GLN A   3     -30.884  -5.348  22.129  0.00  0.00    +0.150 HD
ATOM      5  O   LYS A   2     -33.085  -5.996  19.953  0.00  0.00    -0.273 OA
BRANCH   2   6
ATOM      6  CA  LYS A   2     -30.986  -7.078  20.180  0.00  0.00    +0.149 C 
BRANCH   6   9
ATOM      7  C   ALA A   1     -31.479  -9.368  20.910  0.00  0.00    +0.238 C 
ATOM      8  O   ALA A   1     -30.574  -9.410  21.747  0.00  0.00    -0.274 OA
ATOM      9  N   LYS A   2     -31.664  -8.356  20.068  0.00  0.00    -0.297 N 
ATOM     10  H   LYS A   2     -32.334  -8.488  19.283  0.00  0.00    +0.150 HD
BRANCH   7  11
ATOM     11  CA  ALA A   1     -32.477 -10.507  20.780  0.00  0.00    +0.145 C 
ATOM     12  CB  ALA A   1     -33.744 -10.157  21.525  0.00  0.00    +0.028 C 
BRANCH  11  13
ATOM     13  N   ALA A   1     -31.931 -11.777  21.255  0.00  0.00    -0.238 NA
ATOM     14  H   ALA A   1     -31.267 -11.772  22.056  0.00  0.00    +0.142 HD
ENDBRANCH  11  13
ENDBRANCH   7  11
ENDBRANCH   6   9
BRANCH   6  15
ATOM     15  CB  LYS A   2     -30.306  -6.704  18.858  0.00  0.00    +0.029 C 
BRANCH  15  16
ATOM     16  CG  LYS A   2     -29.642  -5.330  18.856  0.00  0.00    +0.000 C 
BRANCH  16  17
ATOM     17  CD  LYS A   2     -29.233  -4.896  17.446  0.00  0.00    -0.024 C 
BRANCH  17  18
ATOM     18  CE  LYS A   2     -28.697  -3.461  17.447  0.00  0.00    -0.086 C 
BRANCH  18  19
ATOM     19  NZ  LYS A   2     -28.056  -3.074  16.156  0.00  0.00    +0.380 N 
ATOM     20  HZ1 LYS A   2     -27.714  -2.094  16.220  0.00  0.00    -0.089 HD
ATOM     21  HZ2 LYS A   2     -27.256  -3.710  15.964  0.00  0.00    -0.089 HD
ATOM     22  HZ3 LYS A   2     -28.753  -3.150  15.388  0.00  0.00    -0.089 HD
ENDBRANCH  18  19
ENDBRANCH  17  18
ENDBRANCH  16  17
ENDBRANCH  15  16
ENDBRANCH   6  15
ENDBRANCH   2   6
ENDBRANCH   1   3
BRANCH   1  23
ATOM     23  C   GLN A   3     -32.008  -2.774  21.979  0.00  0.00    +0.241 C 
ATOM     24  O   GLN A   3     -30.842  -2.665  22.341  0.00  0.00    -0.273 OA
ATOM     25  N   GLU A   4     -32.752  -1.744  21.573  0.00  0.00    -0.297 N 
ATOM     26  H   GLU A   4     -33.715  -1.938  21.232  0.00  0.00    +0.150 HD
BRANCH  25  27
ATOM     27  CA  GLU A   4     -32.287  -0.356  21.581  0.00  0.00    +0.149 C 
BRANCH  27  28
ATOM     28  C   GLU A   4     -33.212   0.418  22.481  0.00  0.00    +0.241 C 
ATOM     29  N   LEU A   5     -32.647   1.188  23.416  0.00  0.00    -0.298 N 
ATOM     30  H   LEU A   5     -31.610   1.267  23.437  0.00  0.00    +0.150 HD
ATOM     31  O   GLU A   4     -34.422   0.305  22.331  0.00  0.00    -0.273 OA
BRANCH  29  32
ATOM     32  CA  LEU A   5     -33.423   1.922  24.407  0.00  0.00    +0.137 C 
BRANCH  32  33
ATOM     33  C   LEU A   5     -33.249   3.425  24.235  0.00  0.00    +0.227 C 
ATOM     34  O   LEU A   5     -32.141   3.908  24.058  0.00  0.00    -0.286 OA
ENDBRANCH  32  33
BRANCH  32  35
ATOM     35  CB  LEU A   5     -33.006   1.523  25.847  0.00  0.00    +0.028 C 
BRANCH  35  36
ATOM     36  CG  LEU A   5     -32.864   0.023  26.142  0.00  0.00    +0.002 C 
ATOM     37  CD2 LEU A   5     -32.429  -0.260  27.591  0.00  0.00    +0.000 C 
ATOM     38  CD1 LEU A   5     -34.150  -0.716  25.823  0.00  0.00    +0.000 C 
ENDBRANCH  35  36
ENDBRANCH  32  35
ENDBRANCH  29  32
ENDBRANCH  27  28
BRANCH  27  39
ATOM     39  CB  GLU A   4     -32.290   0.268  20.172  0.00  0.00    +0.041 C 
BRANCH  39  40
ATOM     40  CG  GLU A   4     -31.460  -0.470  19.155  0.00  0.00    +0.116 C 
BRANCH  40  41
ATOM     41  CD  GLU A   4     -31.422   0.245  17.803  0.00  0.00    +0.365 C 
ATOM     42  OE2 GLU A   4     -32.152   1.247  17.630  0.00  0.00    -0.246 OA
ATOM     43  OE1 GLU A   4     -30.653  -0.193  16.920  0.00  0.00    -0.246 OA
ENDBRANCH  40  41
ENDBRANCH  39  40
ENDBRANCH  27  39
ENDBRANCH  25  27
ENDBRANCH   1  23
BRANCH   1  44
ATOM     44  CB  GLN A   3     -33.297  -4.391  23.371  0.00  0.00    +0.039 C 
BRANCH  44  45
ATOM     45  CG  GLN A   3     -34.635  -5.084  23.333  0.00  0.00    +0.087 C 
BRANCH  45  46
ATOM     46  CD  GLN A   3     -35.345  -5.150  24.672  0.00  0.00    +0.219 C 
ATOM     47  NE2 GLN A   3     -34.654  -4.775  25.761  0.00  0.00    -0.329 N 
ATOM     48 HE21 GLN A   3     -35.102  -4.809  26.699  0.00  0.00    +0.145 HD
ATOM     49 HE22 GLN A   3     -33.671  -4.450  25.667  0.00  0.00    +0.145 HD
ATOM     50  OE1 GLN A   3     -36.509  -5.541  24.731  0.00  0.00    -0.275 OA
ENDBRANCH  45  46
ENDBRANCH  44  45
ENDBRANCH   1  44
TORSDOF 23
REMARK  Name = ../refined-set-2016/4u0w/4u0w_pocket.pdb
REMARK  261 active torsions:
REMARK  status: ('A' for Active; 'I' for Inactive)
REMARK    1  A    between atoms: _1  and  _3
REMARK    2  A    between atoms: _3  and  _4
REMARK    3  A    between atoms: _3  and  _6
REMARK    4  A    between atoms: _6  and  _7
REMARK    5  A    between atoms: _7  and  _8
REMARK    6  A    between atoms: _13  and  _15
REMARK    7  A    between atoms: _15  and  _16
REMARK    8  A    between atoms: _15  and  _18
REMARK    9  A    between atoms: _18  and  _19
REMARK   10  A    between atoms: _22  and  _24
REMARK   11  A    between atoms: _24  and  _25
REMARK   12  A    between atoms: _24  and  _27
REMARK   13  A    between atoms: _27  and  _28
REMARK   14  A    between atoms: _31  and  _33
REMARK   15  A    between atoms: _33  and  _34
REMARK   16  A    between atoms: _33  and  _36
REMARK   17  A    between atoms: _36  and  _37
REMARK   18  A    between atoms: _40  and  _42
REMARK   19  A    between atoms: _42  and  _43
REMARK   20  A    between atoms: _42  and  _45
REMARK   21  A    between atoms: _45  and  _46
REMARK   22  A    between atoms: _48  and  _50
REMARK   23  A    between atoms: _50  and  _51
REMARK   24  A    between atoms: _50  and  _53
REMARK   25  A    between atoms: _53  and  _54
REMARK   26  A    between atoms: _60  and  _62
REMARK   27  A    between atoms: _62  and  _63
REMARK   28  A    between atoms: _62  and  _65
REMARK   29  A    between atoms: _65  and  _66
REMARK   30  A    between atoms: _69  and  _71
REMARK   31  A    between atoms: _71  and  _72
REMARK   32  A    between atoms: _71  and  _74
REMARK   33  A    between atoms: _74  and  _75
REMARK   34  A    between atoms: _75  and  _76
REMARK   35  A    between atoms: _79  and  _81
REMARK   36  A    between atoms: _81  and  _82
REMARK   37  A    between atoms: _81  and  _84
REMARK   38  A    between atoms: _84  and  _85
REMARK   39  A    between atoms: _88  and  _90
REMARK   40  A    between atoms: _90  and  _91
REMARK   41  A    between atoms: _90  and  _93
REMARK   42  A    between atoms: _93  and  _94
REMARK   43  A    between atoms: _94  and  _95
REMARK   44  A    between atoms: _97  and  _99
REMARK   45  A    between atoms: _99  and  _100
REMARK   46  A    between atoms: _99  and  _102
REMARK   47  A    between atoms: _102  and  _103
REMARK   48  A    between atoms: _103  and  _104
REMARK   49  A    between atoms: _104  and  _105
REMARK   50  A    between atoms: _105  and  _106
REMARK   51  A    between atoms: _111  and  _112
REMARK   52  A    between atoms: _117  and  _119
REMARK   53  A    between atoms: _119  and  _120
REMARK   54  A    between atoms: _122  and  _124
REMARK   55  A    between atoms: _124  and  _125
REMARK   56  A    between atoms: _124  and  _127
REMARK   57  A    between atoms: _127  and  _128
REMARK   58  A    between atoms: _130  and  _132
REMARK   59  A    between atoms: _132  and  _133
REMARK   60  A    between atoms: _132  and  _135
REMARK   61  A    between atoms: _135  and  _136
REMARK   62  A    between atoms: _139  and  _141
REMARK   63  A    between atoms: _141  and  _142
REMARK   64  A    between atoms: _141  and  _144
REMARK   65  A    between atoms: _144  and  _145
REMARK   66  A    between atoms: _145  and  _146
REMARK   67  A    between atoms: _146  and  _147
REMARK   68  A    between atoms: _156  and  _158
REMARK   69  A    between atoms: _158  and  _159
REMARK   70  A    between atoms: _158  and  _161
REMARK   71  A    between atoms: _161  and  _162
REMARK   72  A    between atoms: _162  and  _163
REMARK   73  A    between atoms: _163  and  _164
REMARK   74  A    between atoms: _173  and  _175
REMARK   75  A    between atoms: _175  and  _176
REMARK   76  A    between atoms: _179  and  _181
REMARK   77  A    between atoms: _181  and  _182
REMARK   78  A    between atoms: _181  and  _184
REMARK   79  A    between atoms: _184  and  _185
REMARK   80  A    between atoms: _188  and  _190
REMARK   81  A    between atoms: _190  and  _191
REMARK   82  A    between atoms: _190  and  _193
REMARK   83  A    between atoms: _193  and  _194
REMARK   84  A    between atoms: _194  and  _195
REMARK   85  A    between atoms: _198  and  _200
REMARK   86  A    between atoms: _200  and  _201
REMARK   87  A    between atoms: _200  and  _203
REMARK   88  A    between atoms: _203  and  _204
REMARK   89  A    between atoms: _206  and  _208
REMARK   90  A    between atoms: _208  and  _209
REMARK   91  A    between atoms: _208  and  _211
REMARK   92  A    between atoms: _211  and  _212
REMARK   93  A    between atoms: _214  and  _216
REMARK   94  A    between atoms: _216  and  _217
REMARK   95  A    between atoms: _216  and  _219
REMARK   96  A    between atoms: _219  and  _220
REMARK   97  A    between atoms: _225  and  _227
REMARK   98  A    between atoms: _227  and  _228
REMARK   99  A    between atoms: _227  and  _230
REMARK  100  A    between atoms: _230  and  _231
REMARK  101  A    between atoms: _234  and  _236
REMARK  102  A    between atoms: _236  and  _237
REMARK  103  A    between atoms: _236  and  _239
REMARK  104  A    between atoms: _239  and  _240
REMARK  105  A    between atoms: _245  and  _247
REMARK  106  A    between atoms: _247  and  _248
REMARK  107  A    between atoms: _247  and  _250
REMARK  108  A    between atoms: _250  and  _251
REMARK  109  A    between atoms: _257  and  _259
REMARK  110  A    between atoms: _259  and  _260
REMARK  111  A    between atoms: _259  and  _262
REMARK  112  A    between atoms: _262  and  _263
REMARK  113  A    between atoms: _263  and  _264
REMARK  114  A    between atoms: _269  and  _271
REMARK  115  A    between atoms: _271  and  _272
REMARK  116  A    between atoms: _271  and  _274
REMARK  117  A    between atoms: _274  and  _275
REMARK  118  A    between atoms: _277  and  _279
REMARK  119  A    between atoms: _279  and  _280
REMARK  120  A    between atoms: _279  and  _282
REMARK  121  A    between atoms: _282  and  _283
REMARK  122  A    between atoms: _285  and  _287
REMARK  123  A    between atoms: _287  and  _288
REMARK  124  A    between atoms: _287  and  _290
REMARK  125  A    between atoms: _290  and  _291
REMARK  126  A    between atoms: _294  and  _296
REMARK  127  A    between atoms: _296  and  _297
REMARK  128  A    between atoms: _296  and  _299
REMARK  129  A    between atoms: _299  and  _300
REMARK  130  A    between atoms: _305  and  _306
REMARK  131  A    between atoms: _308  and  _310
REMARK  132  A    between atoms: _310  and  _311
REMARK  133  A    between atoms: _310  and  _313
REMARK  134  A    between atoms: _313  and  _314
REMARK  135  A    between atoms: _317  and  _319
REMARK  136  A    between atoms: _319  and  _320
REMARK  137  A    between atoms: _319  and  _322
REMARK  138  A    between atoms: _322  and  _323
REMARK  139  A    between atoms: _328  and  _330
REMARK  140  A    between atoms: _330  and  _331
REMARK  141  A    between atoms: _330  and  _333
REMARK  142  A    between atoms: _333  and  _334
REMARK  143  A    between atoms: _337  and  _339
REMARK  144  A    between atoms: _339  and  _340
REMARK  145  A    between atoms: _339  and  _342
REMARK  146  A    between atoms: _342  and  _343
REMARK  147  A    between atoms: _343  and  _344
REMARK  148  A    between atoms: _347  and  _349
REMARK  149  A    between atoms: _349  and  _350
REMARK  150  A    between atoms: _349  and  _352
REMARK  151  A    between atoms: _352  and  _353
REMARK  152  A    between atoms: _356  and  _358
REMARK  153  A    between atoms: _358  and  _359
REMARK  154  A    between atoms: _362  and  _364
REMARK  155  A    between atoms: _364  and  _365
REMARK  156  A    between atoms: _364  and  _367
REMARK  157  A    between atoms: _367  and  _368
REMARK  158  A    between atoms: _368  and  _369
REMARK  159  A    between atoms: _369  and  _370
REMARK  160  A    between atoms: _370  and  _371
REMARK  161  A    between atoms: _375  and  _377
REMARK  162  A    between atoms: _377  and  _378
REMARK  163  A    between atoms: _377  and  _380
REMARK  164  A    between atoms: _380  and  _381
REMARK  165  A    between atoms: _381  and  _382
REMARK  166  A    between atoms: _387  and  _389
REMARK  167  A    between atoms: _389  and  _390
REMARK  168  A    between atoms: _389  and  _392
REMARK  169  A    between atoms: _392  and  _393
REMARK  170  A    between atoms: _393  and  _394
REMARK  171  A    between atoms: _397  and  _399
REMARK  172  A    between atoms: _399  and  _400
REMARK  173  A    between atoms: _399  and  _402
REMARK  174  A    between atoms: _402  and  _403
REMARK  175  A    between atoms: _406  and  _408
REMARK  176  A    between atoms: _408  and  _409
REMARK  177  A    between atoms: _408  and  _411
REMARK  178  A    between atoms: _411  and  _412
REMARK  179  A    between atoms: _415  and  _417
REMARK  180  A    between atoms: _417  and  _418
REMARK  181  A    between atoms: _417  and  _420
REMARK  182  A    between atoms: _420  and  _421
REMARK  183  A    between atoms: _424  and  _426
REMARK  184  A    between atoms: _426  and  _427
REMARK  185  A    between atoms: _426  and  _429
REMARK  186  A    between atoms: _429  and  _430
REMARK  187  A    between atoms: _433  and  _435
REMARK  188  A    between atoms: _435  and  _436
REMARK  189  A    between atoms: _435  and  _438
REMARK  190  A    between atoms: _438  and  _439
REMARK  191  A    between atoms: _439  and  _440
REMARK  192  A    between atoms: _440  and  _441
REMARK  193  A    between atoms: _441  and  _442
REMARK  194  A    between atoms: _446  and  _448
REMARK  195  A    between atoms: _448  and  _449
REMARK  196  A    between atoms: _448  and  _451
REMARK  197  A    between atoms: _451  and  _452
REMARK  198  A    between atoms: _452  and  _453
REMARK  199  A    between atoms: _453  and  _454
REMARK  200  A    between atoms: _463  and  _465
REMARK  201  A    between atoms: _465  and  _466
REMARK  202  A    between atoms: _465  and  _468
REMARK  203  A    between atoms: _468  and  _469
REMARK  204  A    between atoms: _472  and  _474
REMARK  205  A    between atoms: _474  and  _475
REMARK  206  A    between atoms: _474  and  _477
REMARK  207  A    between atoms: _477  and  _478
REMARK  208  A    between atoms: _481  and  _483
REMARK  209  A    between atoms: _483  and  _484
REMARK  210  A    between atoms: _483  and  _486
REMARK  211  A    between atoms: _486  and  _487
REMARK  212  A    between atoms: _493  and  _495
REMARK  213  A    between atoms: _495  and  _496
REMARK  214  A    between atoms: _495  and  _498
REMARK  215  A    between atoms: _498  and  _499
REMARK  216  A    between atoms: _499  and  _500
REMARK  217  A    between atoms: _503  and  _505
REMARK  218  A    between atoms: _505  and  _506
REMARK  219  A    between atoms: _505  and  _508
REMARK  220  A    between atoms: _508  and  _509
REMARK  221  A    between atoms: _514  and  _516
REMARK  222  A    between atoms: _516  and  _517
REMARK  223  A    between atoms: _520  and  _522
REMARK  224  A    between atoms: _522  and  _523
REMARK  225  A    between atoms: _522  and  _525
REMARK  226  A    between atoms: _525  and  _526
REMARK  227  A    between atoms: _526  and  _527
REMARK  228  A    between atoms: _527  and  _528
REMARK  229  A    between atoms: _528  and  _529
REMARK  230  A    between atoms: _533  and  _535
REMARK  231  A    between atoms: _535  and  _536
REMARK  232  A    between atoms: _535  and  _538
REMARK  233  A    between atoms: _538  and  _539
REMARK  234  A    between atoms: _541  and  _543
REMARK  235  A    between atoms: _543  and  _544
REMARK  236  A    between atoms: _543  and  _546
REMARK  237  A    between atoms: _549  and  _551
REMARK  238  A    between atoms: _551  and  _552
REMARK  239  A    between atoms: _551  and  _554
REMARK  240  A    between atoms: _554  and  _555
REMARK  241  A    between atoms: _560  and  _561
REMARK  242  A    between atoms: _563  and  _565
REMARK  243  A    between atoms: _565  and  _566
REMARK  244  A    between atoms: _565  and  _568
REMARK  245  A    between atoms: _568  and  _569
REMARK  246  A    between atoms: _574  and  _575
REMARK  247  A    between atoms: _577  and  _579
REMARK  248  A    between atoms: _579  and  _580
REMARK  249  A    between atoms: _579  and  _582
REMARK  250  A    between atoms: _582  and  _583
REMARK  251  A    between atoms: _589  and  _591
REMARK  252  A    between atoms: _591  and  _592
REMARK  253  A    between atoms: _591  and  _594
REMARK  254  A    between atoms: _594  and  _595
REMARK  255  A    between atoms: _595  and  _596
REMARK  256  A    between atoms: _598  and  _600
REMARK  257  A    between atoms: _600  and  _601
REMARK  258  A    between atoms: _600  and  _603
REMARK  259  A    between atoms: _603  and  _604
REMARK  260  A    between atoms: _604  and  _605
REMARK  261  A    between atoms: _605  and  _606
REMARK                            x       y       z     vdW  Elec       q    Type
REMARK                         _______ _______ _______ _____ _____    ______ ____
ROOT
ATOM      1  CA  LYS A   4     -36.792  -1.414  19.680  0.00  0.00    +0.149 C 
ENDROOT
BRANCH   1   2
ATOM      2  C   LYS A   4     -36.121  -2.773  19.844  0.00  0.00    +0.241 C 
ATOM      3  O   LYS A   4     -34.954  -2.842  20.230  0.00  0.00    -0.273 OA
ATOM      4  N   ARG A   5     -36.863  -3.851  19.583  0.00  0.00    -0.297 N 
ATOM      5  H   ARG A   5     -37.841  -3.722  19.253  0.00  0.00    +0.150 HD
BRANCH   4   6
ATOM      6  CA  ARG A   5     -36.342  -5.211  19.747  0.00  0.00    +0.149 C 
BRANCH   6   7
ATOM      7  C   ARG A   5     -36.348  -6.040  18.454  0.00  0.00    +0.241 C 
ATOM      8  N   THR A   6     -35.216  -6.651  18.120  0.00  0.00    -0.295 N 
ATOM      9  H   THR A   6     -34.342  -6.440  18.643  0.00  0.00    +0.150 HD
ATOM     10  O   ARG A   5     -37.368  -6.138  17.783  0.00  0.00    -0.273 OA
BRANCH   8  11
ATOM     11  CA  THR A   6     -35.189  -7.614  17.026  0.00  0.00    +0.176 C 
BRANCH  11  12
ATOM     12  C   THR A   6     -34.909  -8.971  17.632  0.00  0.00    +0.243 C 
ATOM     13  O   THR A   6     -33.920  -9.138  18.340  0.00  0.00    -0.273 OA
ATOM     14  N   THR A   7     -35.799  -9.928  17.385  0.00  0.00    -0.296 N 
ATOM     15  H   THR A   7     -36.504  -9.787  16.634  0.00  0.00    +0.150 HD
BRANCH  14  16
ATOM     16  CA  THR A   7     -35.804 -11.171  18.148  0.00  0.00    +0.164 C 
BRANCH  16  17
ATOM     17  C   THR A   7     -35.551 -12.347  17.207  0.00  0.00    +0.229 C 
ATOM     18  O   THR A   7     -36.068 -12.358  16.085  0.00  0.00    -0.286 OA
ENDBRANCH  16  17
BRANCH  16  19
ATOM     19  CB  THR A   7     -37.139 -11.334  18.886  0.00  0.00    +0.136 C 
ATOM     20  CG2 THR A   7     -36.983 -12.213  20.134  0.00  0.00    +0.034 C 
BRANCH  19  21
ATOM     21  OG1 THR A   7     -37.612 -10.041  19.281  0.00  0.00    -0.382 OA
ATOM     22  HG1 THR A   7     -38.474 -10.138  19.758  0.00  0.00    +0.210 HD
ENDBRANCH  19  21
ENDBRANCH  16  19
ENDBRANCH  14  16
ENDBRANCH  11  12
BRANCH  11  23
ATOM     23  CB  THR A   6     -34.141  -7.264  15.961  0.00  0.00    +0.137 C 
ATOM     24  CG2 THR A   6     -34.161  -8.308  14.836  0.00  0.00    +0.034 C 
BRANCH  23  25
ATOM     25  OG1 THR A   6     -34.449  -5.973  15.422  0.00  0.00    -0.382 OA
ATOM     26  HG1 THR A   6     -33.779  -5.736  14.733  0.00  0.00    +0.210 HD
ENDBRANCH  23  25
ENDBRANCH  11  23
ENDBRANCH   8  11
ENDBRANCH   6   7
BRANCH   6  27
ATOM     27  CB  ARG A   5     -37.151  -5.963  20.810  0.00  0.00    +0.033 C 
BRANCH  27  28
ATOM     28  CG  ARG A   5     -36.740  -7.429  20.943  0.00  0.00    +0.045 C 
BRANCH  28  29
ATOM     29  CD  ARG A   5     -37.586  -8.203  21.954  0.00  0.00    +0.174 C 
BRANCH  29  30
ATOM     30  NE  ARG A   5     -37.382  -7.756  23.338  0.00  0.00    -0.265 N 
ATOM     31  CZ  ARG A   5     -37.841  -8.399  24.409  0.00  0.00    +0.342 C 
ATOM     32  NH2 ARG A   5     -37.617  -7.920  25.634  0.00  0.00    -0.292 N 
ATOM     33 HH21 ARG A   5     -37.979  -8.429  26.466  0.00  0.00    +0.255 HD
ATOM     34 HH22 ARG A   5     -37.080  -7.038  25.757  0.00  0.00    +0.255 HD
ATOM     35  NH1 ARG A   5     -38.520  -9.527  24.265  0.00  0.00    -0.292 N 
ATOM     36 HH11 ARG A   5     -38.878 -10.029  25.103  0.00  0.00    +0.255 HD
ATOM     37 HH12 ARG A   5     -38.695  -9.911  23.314  0.00  0.00    +0.255 HD
ATOM     38  HE  ARG A   5     -36.844  -6.880  23.491  0.00  0.00    +0.259 HD
ENDBRANCH  29  30
ENDBRANCH  28  29
ENDBRANCH  27  28
ENDBRANCH   6  27
ENDBRANCH   4   6
ENDBRANCH   1   2
BRANCH   1  41
ATOM     39  C   ILE A   3     -37.885  -0.431  21.641  0.00  0.00    +0.241 C 
ATOM     40  O   ILE A   3     -39.003  -0.573  21.176  0.00  0.00    -0.273 OA
ATOM     41  N   LYS A   4     -36.773  -0.728  20.980  0.00  0.00    -0.297 N 
ATOM     42  H   LYS A   4     -35.857  -0.466  21.396  0.00  0.00    +0.150 HD
BRANCH  39  43
ATOM     43  CA  ILE A   3     -37.707   0.121  23.056  0.00  0.00    +0.149 C 
BRANCH  43  46
ATOM     44  C   LEU A   2     -37.922   2.466  23.570  0.00  0.00    +0.241 C 
ATOM     45  O   LEU A   2     -36.709   2.598  23.692  0.00  0.00    -0.273 OA
ATOM     46  N   ILE A   3     -38.495   1.322  23.215  0.00  0.00    -0.297 N 
ATOM     47  H   ILE A   3     -39.521   1.290  23.050  0.00  0.00    +0.150 HD
BRANCH  44  48
ATOM     48  CA  LEU A   2     -38.830   3.629  23.822  0.00  0.00    +0.149 C 
BRANCH  48  51
ATOM     49  C   LEU A   1     -39.273   3.538  26.247  0.00  0.00    +0.238 C 
ATOM     50  O   LEU A   1     -40.137   2.668  26.146  0.00  0.00    -0.274 OA
ATOM     51  N   LEU A   2     -38.667   4.098  25.208  0.00  0.00    -0.297 N 
ATOM     52  H   LEU A   2     -38.043   4.912  25.382  0.00  0.00    +0.150 HD
BRANCH  49  53
ATOM     53  CA  LEU A   1     -38.847   4.068  27.630  0.00  0.00    +0.145 C 
BRANCH  53  54
ATOM     54  N   LEU A   1     -39.989   4.636  28.303  0.00  0.00    -0.238 NA
ATOM     55  H   LEU A   1     -40.659   4.025  28.813  0.00  0.00    +0.142 HD
ENDBRANCH  53  54
BRANCH  53  56
ATOM     56  CB  LEU A   1     -38.220   2.953  28.441  0.00  0.00    +0.026 C 
BRANCH  56  57
ATOM     57  CG  LEU A   1     -36.802   2.666  27.956  0.00  0.00    +0.002 C 
ATOM     58  CD2 LEU A   1     -36.224   1.476  28.706  0.00  0.00    +0.000 C 
ATOM     59  CD1 LEU A   1     -35.948   3.938  28.146  0.00  0.00    +0.000 C 
ENDBRANCH  56  57
ENDBRANCH  53  56
ENDBRANCH  49  53
ENDBRANCH  48  51
BRANCH  48  60
ATOM     60  CB  LEU A   2     -38.491   4.745  22.831  0.00  0.00    +0.029 C 
BRANCH  60  61
ATOM     61  CG  LEU A   2     -39.653   5.235  22.004  0.00  0.00    +0.002 C 
ATOM     62  CD2 LEU A   2     -40.598   5.892  22.970  0.00  0.00    +0.000 C 
ATOM     63  CD1 LEU A   2     -39.160   6.188  20.908  0.00  0.00    +0.000 C 
ENDBRANCH  60  61
ENDBRANCH  48  60
ENDBRANCH  44  48
ENDBRANCH  43  46
BRANCH  43  64
ATOM     64  CB  ILE A   3     -38.088  -0.958  24.092  0.00  0.00    +0.027 C 
ATOM     65  CG2 ILE A   3     -37.149  -2.150  23.954  0.00  0.00    +0.002 C 
BRANCH  64  66
ATOM     66  CG1 ILE A   3     -38.024  -0.367  25.511  0.00  0.00    +0.002 C 
ATOM     67  CD1 ILE A   3     -38.440  -1.340  26.656  0.00  0.00    +0.000 C 
ENDBRANCH  64  66
ENDBRANCH  43  64
ENDBRANCH  39  43
ENDBRANCH   1  41
BRANCH   1  68
ATOM     68  CB  LYS A   4     -36.077  -0.570  18.612  0.00  0.00    +0.029 C 
BRANCH  68  69
ATOM     69  CG  LYS A   4     -36.334  -0.957  17.177  0.00  0.00    +0.000 C 
BRANCH  69  70
ATOM     70  CD  LYS A   4     -35.379  -0.214  16.246  0.00  0.00    -0.024 C 
BRANCH  70  71
ATOM     71  CE  LYS A   4     -35.486   1.297  16.433  0.00  0.00    -0.086 C 
BRANCH  71  72
ATOM     72  NZ  LYS A   4     -34.621   2.034  15.459  0.00  0.00    +0.380 N 
ATOM     73  HZ1 LYS A   4     -34.719   3.057  15.615  0.00  0.00    -0.089 HD
ATOM     74  HZ2 LYS A   4     -33.629   1.754  15.598  0.00  0.00    -0.089 HD
ATOM     75  HZ3 LYS A   4     -34.916   1.800  14.489  0.00  0.00    -0.089 HD
ENDBRANCH  71  72
ENDBRANCH  70  71
ENDBRANCH  69  70
ENDBRANCH  68  69
ENDBRANCH   1  68
TORSDOF 33
REMARK  Name = ../refined-set-2016/4u0w/4u0w_pocket.pdb
REMARK  261 active torsions:
REMARK  status: ('A' for Active; 'I' for Inactive)
REMARK    1  A    between atoms: _1  and  _3
REMARK    2  A    between atoms: _3  and  _4
REMARK    3  A    between atoms: _3  and  _6
REMARK    4  A    between atoms: _6  and  _7
REMARK    5  A    between atoms: _7  and  _8
REMARK    6  A    between atoms: _13  and  _15
REMARK    7  A    between atoms: _15  and  _16
REMARK    8  A    between atoms: _15  and  _18
REMARK    9  A    between atoms: _18  and  _19
REMARK   10  A    between atoms: _22  and  _24
REMARK   11  A    between atoms: _24  and  _25
REMARK   12  A    between atoms: _24  and  _27
REMARK   13  A    between atoms: _27  and  _28
REMARK   14  A    between atoms: _31  and  _33
REMARK   15  A    between atoms: _33  and  _34
REMARK   16  A    between atoms: _33  and  _36
REMARK   17  A    between atoms: _36  and  _37
REMARK   18  A    between atoms: _40  and  _42
REMARK   19  A    between atoms: _42  and  _43
REMARK   20  A    between atoms: _42  and  _45
REMARK   21  A    between atoms: _45  and  _46
REMARK   22  A    between atoms: _48  and  _50
REMARK   23  A    between atoms: _50  and  _51
REMARK   24  A    between atoms: _50  and  _53
REMARK   25  A    between atoms: _53  and  _54
REMARK   26  A    between atoms: _60  and  _62
REMARK   27  A    between atoms: _62  and  _63
REMARK   28  A    between atoms: _62  and  _65
REMARK   29  A    between atoms: _65  and  _66
REMARK   30  A    between atoms: _69  and  _71
REMARK   31  A    between atoms: _71  and  _72
REMARK   32  A    between atoms: _71  and  _74
REMARK   33  A    between atoms: _74  and  _75
REMARK   34  A    between atoms: _75  and  _76
REMARK   35  A    between atoms: _79  and  _81
REMARK   36  A    between atoms: _81  and  _82
REMARK   37  A    between atoms: _81  and  _84
REMARK   38  A    between atoms: _84  and  _85
REMARK   39  A    between atoms: _88  and  _90
REMARK   40  A    between atoms: _90  and  _91
REMARK   41  A    between atoms: _90  and  _93
REMARK   42  A    between atoms: _93  and  _94
REMARK   43  A    between atoms: _94  and  _95
REMARK   44  A    between atoms: _97  and  _99
REMARK   45  A    between atoms: _99  and  _100
REMARK   46  A    between atoms: _99  and  _102
REMARK   47  A    between atoms: _102  and  _103
REMARK   48  A    between atoms: _103  and  _104
REMARK   49  A    between atoms: _104  and  _105
REMARK   50  A    between atoms: _105  and  _106
REMARK   51  A    between atoms: _111  and  _112
REMARK   52  A    between atoms: _117  and  _119
REMARK   53  A    between atoms: _119  and  _120
REMARK   54  A    between atoms: _122  and  _124
REMARK   55  A    between atoms: _124  and  _125
REMARK   56  A    between atoms: _124  and  _127
REMARK   57  A    between atoms: _127  and  _128
REMARK   58  A    between atoms: _130  and  _132
REMARK   59  A    between atoms: _132  and  _133
REMARK   60  A    between atoms: _132  and  _135
REMARK   61  A    between atoms: _135  and  _136
REMARK   62  A    between atoms: _139  and  _141
REMARK   63  A    between atoms: _141  and  _142
REMARK   64  A    between atoms: _141  and  _144
REMARK   65  A    between atoms: _144  and  _145
REMARK   66  A    between atoms: _145  and  _146
REMARK   67  A    between atoms: _146  and  _147
REMARK   68  A    between atoms: _156  and  _158
REMARK   69  A    between atoms: _158  and  _159
REMARK   70  A    between atoms: _158  and  _161
REMARK   71  A    between atoms: _161  and  _162
REMARK   72  A    between atoms: _162  and  _163
REMARK   73  A    between atoms: _163  and  _164
REMARK   74  A    between atoms: _173  and  _175
REMARK   75  A    between atoms: _175  and  _176
REMARK   76  A    between atoms: _179  and  _181
REMARK   77  A    between atoms: _181  and  _182
REMARK   78  A    between atoms: _181  and  _184
REMARK   79  A    between atoms: _184  and  _185
REMARK   80  A    between atoms: _188  and  _190
REMARK   81  A    between atoms: _190  and  _191
REMARK   82  A    between atoms: _190  and  _193
REMARK   83  A    between atoms: _193  and  _194
REMARK   84  A    between atoms: _194  and  _195
REMARK   85  A    between atoms: _198  and  _200
REMARK   86  A    between atoms: _200  and  _201
REMARK   87  A    between atoms: _200  and  _203
REMARK   88  A    between atoms: _203  and  _204
REMARK   89  A    between atoms: _206  and  _208
REMARK   90  A    between atoms: _208  and  _209
REMARK   91  A    between atoms: _208  and  _211
REMARK   92  A    between atoms: _211  and  _212
REMARK   93  A    between atoms: _214  and  _216
REMARK   94  A    between atoms: _216  and  _217
REMARK   95  A    between atoms: _216  and  _219
REMARK   96  A    between atoms: _219  and  _220
REMARK   97  A    between atoms: _225  and  _227
REMARK   98  A    between atoms: _227  and  _228
REMARK   99  A    between atoms: _227  and  _230
REMARK  100  A    between atoms: _230  and  _231
REMARK  101  A    between atoms: _234  and  _236
REMARK  102  A    between atoms: _236  and  _237
REMARK  103  A    between atoms: _236  and  _239
REMARK  104  A    between atoms: _239  and  _240
REMARK  105  A    between atoms: _245  and  _247
REMARK  106  A    between atoms: _247  and  _248
REMARK  107  A    between atoms: _247  and  _250
REMARK  108  A    between atoms: _250  and  _251
REMARK  109  A    between atoms: _257  and  _259
REMARK  110  A    between atoms: _259  and  _260
REMARK  111  A    between atoms: _259  and  _262
REMARK  112  A    between atoms: _262  and  _263
REMARK  113  A    between atoms: _263  and  _264
REMARK  114  A    between atoms: _269  and  _271
REMARK  115  A    between atoms: _271  and  _272
REMARK  116  A    between atoms: _271  and  _274
REMARK  117  A    between atoms: _274  and  _275
REMARK  118  A    between atoms: _277  and  _279
REMARK  119  A    between atoms: _279  and  _280
REMARK  120  A    between atoms: _279  and  _282
REMARK  121  A    between atoms: _282  and  _283
REMARK  122  A    between atoms: _285  and  _287
REMARK  123  A    between atoms: _287  and  _288
REMARK  124  A    between atoms: _287  and  _290
REMARK  125  A    between atoms: _290  and  _291
REMARK  126  A    between atoms: _294  and  _296
REMARK  127  A    between atoms: _296  and  _297
REMARK  128  A    between atoms: _296  and  _299
REMARK  129  A    between atoms: _299  and  _300
REMARK  130  A    between atoms: _305  and  _306
REMARK  131  A    between atoms: _308  and  _310
REMARK  132  A    between atoms: _310  and  _311
REMARK  133  A    between atoms: _310  and  _313
REMARK  134  A    between atoms: _313  and  _314
REMARK  135  A    between atoms: _317  and  _319
REMARK  136  A    between atoms: _319  and  _320
REMARK  137  A    between atoms: _319  and  _322
REMARK  138  A    between atoms: _322  and  _323
REMARK  139  A    between atoms: _328  and  _330
REMARK  140  A    between atoms: _330  and  _331
REMARK  141  A    between atoms: _330  and  _333
REMARK  142  A    between atoms: _333  and  _334
REMARK  143  A    between atoms: _337  and  _339
REMARK  144  A    between atoms: _339  and  _340
REMARK  145  A    between atoms: _339  and  _342
REMARK  146  A    between atoms: _342  and  _343
REMARK  147  A    between atoms: _343  and  _344
REMARK  148  A    between atoms: _347  and  _349
REMARK  149  A    between atoms: _349  and  _350
REMARK  150  A    between atoms: _349  and  _352
REMARK  151  A    between atoms: _352  and  _353
REMARK  152  A    between atoms: _356  and  _358
REMARK  153  A    between atoms: _358  and  _359
REMARK  154  A    between atoms: _362  and  _364
REMARK  155  A    between atoms: _364  and  _365
REMARK  156  A    between atoms: _364  and  _367
REMARK  157  A    between atoms: _367  and  _368
REMARK  158  A    between atoms: _368  and  _369
REMARK  159  A    between atoms: _369  and  _370
REMARK  160  A    between atoms: _370  and  _371
REMARK  161  A    between atoms: _375  and  _377
REMARK  162  A    between atoms: _377  and  _378
REMARK  163  A    between atoms: _377  and  _380
REMARK  164  A    between atoms: _380  and  _381
REMARK  165  A    between atoms: _381  and  _382
REMARK  166  A    between atoms: _387  and  _389
REMARK  167  A    between atoms: _389  and  _390
REMARK  168  A    between atoms: _389  and  _392
REMARK  169  A    between atoms: _392  and  _393
REMARK  170  A    between atoms: _393  and  _394
REMARK  171  A    between atoms: _397  and  _399
REMARK  172  A    between atoms: _399  and  _400
REMARK  173  A    between atoms: _399  and  _402
REMARK  174  A    between atoms: _402  and  _403
REMARK  175  A    between atoms: _406  and  _408
REMARK  176  A    between atoms: _408  and  _409
REMARK  177  A    between atoms: _408  and  _411
REMARK  178  A    between atoms: _411  and  _412
REMARK  179  A    between atoms: _415  and  _417
REMARK  180  A    between atoms: _417  and  _418
REMARK  181  A    between atoms: _417  and  _420
REMARK  182  A    between atoms: _420  and  _421
REMARK  183  A    between atoms: _424  and  _426
REMARK  184  A    between atoms: _426  and  _427
REMARK  185  A    between atoms: _426  and  _429
REMARK  186  A    between atoms: _429  and  _430
REMARK  187  A    between atoms: _433  and  _435
REMARK  188  A    between atoms: _435  and  _436
REMARK  189  A    between atoms: _435  and  _438
REMARK  190  A    between atoms: _438  and  _439
REMARK  191  A    between atoms: _439  and  _440
REMARK  192  A    between atoms: _440  and  _441
REMARK  193  A    between atoms: _441  and  _442
REMARK  194  A    between atoms: _446  and  _448
REMARK  195  A    between atoms: _448  and  _449
REMARK  196  A    between atoms: _448  and  _451
REMARK  197  A    between atoms: _451  and  _452
REMARK  198  A    between atoms: _452  and  _453
REMARK  199  A    between atoms: _453  and  _454
REMARK  200  A    between atoms: _463  and  _465
REMARK  201  A    between atoms: _465  and  _466
REMARK  202  A    between atoms: _465  and  _468
REMARK  203  A    between atoms: _468  and  _469
REMARK  204  A    between atoms: _472  and  _474
REMARK  205  A    between atoms: _474  and  _475
REMARK  206  A    between atoms: _474  and  _477
REMARK  207  A    between atoms: _477  and  _478
REMARK  208  A    between atoms: _481  and  _483
REMARK  209  A    between atoms: _483  and  _484
REMARK  210  A    between atoms: _483  and  _486
REMARK  211  A    between atoms: _486  and  _487
REMARK  212  A    between atoms: _493  and  _495
REMARK  213  A    between atoms: _495  and  _496
REMARK  214  A    between atoms: _495  and  _498
REMARK  215  A    between atoms: _498  and  _499
REMARK  216  A    between atoms: _499  and  _500
REMARK  217  A    between atoms: _503  and  _505
REMARK  218  A    between atoms: _505  and  _506
REMARK  219  A    between atoms: _505  and  _508
REMARK  220  A    between atoms: _508  and  _509
REMARK  221  A    between atoms: _514  and  _516
REMARK  222  A    between atoms: _516  and  _517
REMARK  223  A    between atoms: _520  and  _522
REMARK  224  A    between atoms: _522  and  _523
REMARK  225  A    between atoms: _522  and  _525
REMARK  226  A    between atoms: _525  and  _526
REMARK  227  A    between atoms: _526  and  _527
REMARK  228  A    between atoms: _527  and  _528
REMARK  229  A    between atoms: _528  and  _529
REMARK  230  A    between atoms: _533  and  _535
REMARK  231  A    between atoms: _535  and  _536
REMARK  232  A    between atoms: _535  and  _538
REMARK  233  A    between atoms: _538  and  _539
REMARK  234  A    between atoms: _541  and  _543
REMARK  235  A    between atoms: _543  and  _544
REMARK  236  A    between atoms: _543  and  _546
REMARK  237  A    between atoms: _549  and  _551
REMARK  238  A    between atoms: _551  and  _552
REMARK  239  A    between atoms: _551  and  _554
REMARK  240  A    between atoms: _554  and  _555
REMARK  241  A    between atoms: _560  and  _561
REMARK  242  A    between atoms: _563  and  _565
REMARK  243  A    between atoms: _565  and  _566
REMARK  244  A    between atoms: _565  and  _568
REMARK  245  A    between atoms: _568  and  _569
REMARK  246  A    between atoms: _574  and  _575
REMARK  247  A    between atoms: _577  and  _579
REMARK  248  A    between atoms: _579  and  _580
REMARK  249  A    between atoms: _579  and  _582
REMARK  250  A    between atoms: _582  and  _583
REMARK  251  A    between atoms: _589  and  _591
REMARK  252  A    between atoms: _591  and  _592
REMARK  253  A    between atoms: _591  and  _594
REMARK  254  A    between atoms: _594  and  _595
REMARK  255  A    between atoms: _595  and  _596
REMARK  256  A    between atoms: _598  and  _600
REMARK  257  A    between atoms: _600  and  _601
REMARK  258  A    between atoms: _600  and  _603
REMARK  259  A    between atoms: _603  and  _604
REMARK  260  A    between atoms: _604  and  _605
REMARK  261  A    between atoms: _605  and  _606
REMARK                            x       y       z     vdW  Elec       q    Type
REMARK                         _______ _______ _______ _____ _____    ______ ____
ROOT
ATOM      1  C   ALA A   4     -40.484  -3.340  18.195  0.00  0.00    +0.241 C 
ATOM      2  O   ALA A   4     -39.308  -3.137  18.506  0.00  0.00    -0.273 OA
ATOM      3  N   LYS A   5     -41.416  -2.400  18.243  0.00  0.00    -0.297 N 
ATOM      4  H   LYS A   5     -42.358  -2.592  17.846  0.00  0.00    +0.150 HD
ENDROOT
BRANCH   1   5
ATOM      5  CA  ALA A   4     -40.940  -4.697  17.678  0.00  0.00    +0.149 C 
ATOM      6  CB  ALA A   4     -41.353  -5.583  18.832  0.00  0.00    +0.031 C 
BRANCH   5   8
ATOM      7  C   HIS A   3     -40.127  -5.763  15.649  0.00  0.00    +0.241 C 
ATOM      8  N   ALA A   4     -39.898  -5.340  16.893  0.00  0.00    -0.297 N 
ATOM      9  H   ALA A   4     -38.955  -5.473  17.310  0.00  0.00    +0.150 HD
ATOM     10  O   HIS A   3     -41.183  -5.575  15.059  0.00  0.00    -0.273 OA
BRANCH   7  11
ATOM     11  CA  HIS A   3     -39.014  -6.540  14.982  0.00  0.00    +0.155 C 
BRANCH  11  14
ATOM     12  C   GLU A   2     -38.885  -8.945  15.179  0.00  0.00    +0.241 C 
ATOM     13  O   GLU A   2     -37.680  -8.963  15.448  0.00  0.00    -0.273 OA
ATOM     14  N   HIS A   3     -39.526  -7.866  14.767  0.00  0.00    -0.297 N 
ATOM     15  H   HIS A   3     -40.432  -7.980  14.270  0.00  0.00    +0.150 HD
BRANCH  12  16
ATOM     16  CA  GLU A   2     -39.736 -10.206  15.255  0.00  0.00    +0.149 C 
BRANCH  16  18
ATOM     17  C   PHE A   1     -39.706 -12.324  14.089  0.00  0.00    +0.239 C 
ATOM     18  N   GLU A   2     -39.029 -11.359  14.703  0.00  0.00    -0.297 N 
ATOM     19  H   GLU A   2     -37.995 -11.425  14.791  0.00  0.00    +0.150 HD
ATOM     20  O   PHE A   1     -40.919 -12.258  13.870  0.00  0.00    -0.274 OA
BRANCH  17  21
ATOM     21  CA  PHE A   1     -38.923 -13.553  13.693  0.00  0.00    +0.149 C 
BRANCH  21  22
ATOM     22  N   PHE A   1     -37.479 -13.389  13.849  0.00  0.00    -0.238 NA
ATOM     23  H   PHE A   1     -37.057 -13.249  14.789  0.00  0.00    +0.142 HD
ENDBRANCH  21  22
BRANCH  21  24
ATOM     24  CB  PHE A   1     -39.424 -14.765  14.497  0.00  0.00    +0.053 C 
BRANCH  24  25
ATOM     25  CG  PHE A   1     -39.437 -14.556  15.997  0.00  0.00    -0.020 A 
ATOM     26  CD2 PHE A   1     -38.319 -14.872  16.767  0.00  0.00    -0.004 A 
ATOM     27  CE2 PHE A   1     -38.345 -14.702  18.175  0.00  0.00    -0.000 A 
ATOM     28  CZ  PHE A   1     -39.495 -14.219  18.777  0.00  0.00    -0.000 A 
ATOM     29  CE1 PHE A   1     -40.614 -13.918  18.007  0.00  0.00    -0.000 A 
ATOM     30  CD1 PHE A   1     -40.581 -14.091  16.637  0.00  0.00    -0.004 A 
ENDBRANCH  24  25
ENDBRANCH  21  24
ENDBRANCH  17  21
ENDBRANCH  16  18
BRANCH  16  31
ATOM     31  CB  GLU A   2     -40.154 -10.449  16.717  0.00  0.00    +0.041 C 
BRANCH  31  32
ATOM     32  CG  GLU A   2     -40.856  -9.248  17.359  0.00  0.00    +0.116 C 
BRANCH  32  33
ATOM     33  CD  GLU A   2     -41.132  -9.440  18.839  0.00  0.00    +0.365 C 
ATOM     34  OE2 GLU A   2     -40.176  -9.818  19.566  0.00  0.00    -0.246 OA
ATOM     35  OE1 GLU A   2     -42.290  -9.184  19.270  0.00  0.00    -0.246 OA
ENDBRANCH  32  33
ENDBRANCH  31  32
ENDBRANCH  16  31
ENDBRANCH  12  16
ENDBRANCH  11  14
BRANCH  11  36
ATOM     36  CB  HIS A   3     -38.583  -5.880  13.680  0.00  0.00    +0.076 C 
BRANCH  36  37
ATOM     37  CG  HIS A   3     -38.021  -4.510  13.872  0.00  0.00    +0.082 A 
ATOM     38  ND1 HIS A   3     -36.836  -4.282  14.537  0.00  0.00    -0.227 NA
ATOM     39  CE1 HIS A   3     -36.594  -2.984  14.562  0.00  0.00    +0.199 A 
ATOM     40  NE2 HIS A   3     -37.579  -2.363  13.939  0.00  0.00    -0.221 NA
ATOM     41  CD2 HIS A   3     -38.487  -3.294  13.502  0.00  0.00    +0.115 A 
ENDBRANCH  36  37
ENDBRANCH  11  36
ENDBRANCH   7  11
ENDBRANCH   5   8
ENDBRANCH   1   5
BRANCH   3  42
ATOM     42  CA  LYS A   5     -41.144  -1.110  18.839  0.00  0.00    +0.149 C 
BRANCH  42  43
ATOM     43  C   LYS A   5     -42.195  -0.892  19.909  0.00  0.00    +0.241 C 
ATOM     44  N   SER A   6     -41.746  -0.454  21.083  0.00  0.00    -0.295 N 
ATOM     45  H   SER A   6     -40.759  -0.138  21.169  0.00  0.00    +0.150 HD
ATOM     46  O   LYS A   5     -43.374  -1.149  19.695  0.00  0.00    -0.273 OA
BRANCH  44  47
ATOM     47  CA  SER A   6     -42.614  -0.412  22.242  0.00  0.00    +0.178 C 
BRANCH  47  48
ATOM     48  C   SER A   6     -42.386   0.846  23.059  0.00  0.00    +0.243 C 
ATOM     49  N   VAL A   7     -43.413   1.202  23.821  0.00  0.00    -0.297 N 
ATOM     50  H   VAL A   7     -44.305   0.680  23.706  0.00  0.00    +0.150 HD
ATOM     51  O   SER A   6     -41.324   1.471  22.981  0.00  0.00    -0.273 OA
BRANCH  49  52
ATOM     52  CA  VAL A   7     -43.377   2.274  24.808  0.00  0.00    +0.149 C 
BRANCH  52  53
ATOM     53  C   VAL A   7     -43.705   1.679  26.184  0.00  0.00    +0.241 C 
ATOM     54  N   TYR A   8     -42.749   1.739  27.106  0.00  0.00    -0.298 N 
ATOM     55  H   TYR A   8     -41.825   2.138  26.843  0.00  0.00    +0.150 HD
ATOM     56  O   VAL A   7     -44.789   1.150  26.387  0.00  0.00    -0.273 OA
BRANCH  54  57
ATOM     57  CA  TYR A   8     -42.947   1.265  28.478  0.00  0.00    +0.141 C 
BRANCH  57  58
ATOM     58  C   TYR A   8     -43.077   2.430  29.468  0.00  0.00    +0.227 C 
ATOM     59  O   TYR A   8     -42.300   3.380  29.425  0.00  0.00    -0.286 OA
ENDBRANCH  57  58
BRANCH  57  60
ATOM     60  CB  TYR A   8     -41.792   0.349  28.892  0.00  0.00    +0.054 C 
BRANCH  60  61
ATOM     61  CG  TYR A   8     -42.011  -1.082  28.498  0.00  0.00    -0.020 A 
ATOM     62  CD2 TYR A   8     -42.172  -2.068  29.465  0.00  0.00    -0.001 A 
ATOM     63  CE2 TYR A   8     -42.392  -3.387  29.108  0.00  0.00    +0.036 A 
ATOM     64  CZ  TYR A   8     -42.473  -3.726  27.760  0.00  0.00    +0.134 A 
ATOM     65  CE1 TYR A   8     -42.333  -2.761  26.784  0.00  0.00    +0.036 A 
ATOM     66  CD1 TYR A   8     -42.098  -1.448  27.150  0.00  0.00    -0.001 A 
BRANCH  64  67
ATOM     67  OH  TYR A   8     -42.692  -5.031  27.396  0.00  0.00    -0.506 OA
ATOM     68  HH  TYR A   8     -42.722  -5.096  26.409  0.00  0.00    +0.292 HD
ENDBRANCH  64  67
ENDBRANCH  60  61
ENDBRANCH  57  60
ENDBRANCH  54  57
ENDBRANCH  52  53
BRANCH  52  69
ATOM     69  CB  VAL A   7     -44.387   3.404  24.443  0.00  0.00    +0.027 C 
ATOM     70  CG2 VAL A   7     -44.762   4.203  25.632  0.00  0.00    +0.002 C 
ATOM     71  CG1 VAL A   7     -43.796   4.311  23.371  0.00  0.00    +0.002 C 
ENDBRANCH  52  69
ENDBRANCH  49  52
ENDBRANCH  47  48
BRANCH  47  72
ATOM     72  CB  SER A   6     -42.389  -1.633  23.142  0.00  0.00    +0.166 C 
BRANCH  72  73
ATOM     73  OG  SER A   6     -42.378  -2.845  22.408  0.00  0.00    -0.380 OA
ATOM     74  H   SER A   6     -41.649  -2.817  21.739  0.00  0.00    +0.211 HD
ENDBRANCH  72  73
ENDBRANCH  47  72
ENDBRANCH  44  47
ENDBRANCH  42  43
BRANCH  42  75
ATOM     75  CB  LYS A   5     -41.131   0.016  17.801  0.00  0.00    +0.029 C 
BRANCH  75  76
ATOM     76  CG  LYS A   5     -42.297   0.071  16.853  0.00  0.00    +0.000 C 
BRANCH  76  77
ATOM     77  CD  LYS A   5     -42.129   1.248  15.872  0.00  0.00    -0.024 C 
BRANCH  77  78
ATOM     78  CE  LYS A   5     -40.751   1.232  15.217  0.00  0.00    -0.086 C 
BRANCH  78  79
ATOM     79  NZ  LYS A   5     -40.442   2.511  14.512  0.00  0.00    +0.380 N 
ATOM     80  HZ1 LYS A   5     -40.465   3.296  15.194  0.00  0.00    -0.089 HD
ATOM     81  HZ2 LYS A   5     -39.496   2.450  14.084  0.00  0.00    -0.089 HD
ATOM     82  HZ3 LYS A   5     -41.150   2.675  13.768  0.00  0.00    -0.089 HD
ENDBRANCH  78  79
ENDBRANCH  77  78
ENDBRANCH  76  77
ENDBRANCH  75  76
ENDBRANCH  42  75
ENDBRANCH   3  42
TORSDOF 34
REMARK  Name = ../refined-set-2016/4u0w/4u0w_pocket.pdb
REMARK  261 active torsions:
REMARK  status: ('A' for Active; 'I' for Inactive)
REMARK    1  A    between atoms: _1  and  _3
REMARK    2  A    between atoms: _3  and  _4
REMARK    3  A    between atoms: _3  and  _6
REMARK    4  A    between atoms: _6  and  _7
REMARK    5  A    between atoms: _7  and  _8
REMARK    6  A    between atoms: _13  and  _15
REMARK    7  A    between atoms: _15  and  _16
REMARK    8  A    between atoms: _15  and  _18
REMARK    9  A    between atoms: _18  and  _19
REMARK   10  A    between atoms: _22  and  _24
REMARK   11  A    between atoms: _24  and  _25
REMARK   12  A    between atoms: _24  and  _27
REMARK   13  A    between atoms: _27  and  _28
REMARK   14  A    between atoms: _31  and  _33
REMARK   15  A    between atoms: _33  and  _34
REMARK   16  A    between atoms: _33  and  _36
REMARK   17  A    between atoms: _36  and  _37
REMARK   18  A    between atoms: _40  and  _42
REMARK   19  A    between atoms: _42  and  _43
REMARK   20  A    between atoms: _42  and  _45
REMARK   21  A    between atoms: _45  and  _46
REMARK   22  A    between atoms: _48  and  _50
REMARK   23  A    between atoms: _50  and  _51
REMARK   24  A    between atoms: _50  and  _53
REMARK   25  A    between atoms: _53  and  _54
REMARK   26  A    between atoms: _60  and  _62
REMARK   27  A    between atoms: _62  and  _63
REMARK   28  A    between atoms: _62  and  _65
REMARK   29  A    between atoms: _65  and  _66
REMARK   30  A    between atoms: _69  and  _71
REMARK   31  A    between atoms: _71  and  _72
REMARK   32  A    between atoms: _71  and  _74
REMARK   33  A    between atoms: _74  and  _75
REMARK   34  A    between atoms: _75  and  _76
REMARK   35  A    between atoms: _79  and  _81
REMARK   36  A    between atoms: _81  and  _82
REMARK   37  A    between atoms: _81  and  _84
REMARK   38  A    between atoms: _84  and  _85
REMARK   39  A    between atoms: _88  and  _90
REMARK   40  A    between atoms: _90  and  _91
REMARK   41  A    between atoms: _90  and  _93
REMARK   42  A    between atoms: _93  and  _94
REMARK   43  A    between atoms: _94  and  _95
REMARK   44  A    between atoms: _97  and  _99
REMARK   45  A    between atoms: _99  and  _100
REMARK   46  A    between atoms: _99  and  _102
REMARK   47  A    between atoms: _102  and  _103
REMARK   48  A    between atoms: _103  and  _104
REMARK   49  A    between atoms: _104  and  _105
REMARK   50  A    between atoms: _105  and  _106
REMARK   51  A    between atoms: _111  and  _112
REMARK   52  A    between atoms: _117  and  _119
REMARK   53  A    between atoms: _119  and  _120
REMARK   54  A    between atoms: _122  and  _124
REMARK   55  A    between atoms: _124  and  _125
REMARK   56  A    between atoms: _124  and  _127
REMARK   57  A    between atoms: _127  and  _128
REMARK   58  A    between atoms: _130  and  _132
REMARK   59  A    between atoms: _132  and  _133
REMARK   60  A    between atoms: _132  and  _135
REMARK   61  A    between atoms: _135  and  _136
REMARK   62  A    between atoms: _139  and  _141
REMARK   63  A    between atoms: _141  and  _142
REMARK   64  A    between atoms: _141  and  _144
REMARK   65  A    between atoms: _144  and  _145
REMARK   66  A    between atoms: _145  and  _146
REMARK   67  A    between atoms: _146  and  _147
REMARK   68  A    between atoms: _156  and  _158
REMARK   69  A    between atoms: _158  and  _159
REMARK   70  A    between atoms: _158  and  _161
REMARK   71  A    between atoms: _161  and  _162
REMARK   72  A    between atoms: _162  and  _163
REMARK   73  A    between atoms: _163  and  _164
REMARK   74  A    between atoms: _173  and  _175
REMARK   75  A    between atoms: _175  and  _176
REMARK   76  A    between atoms: _179  and  _181
REMARK   77  A    between atoms: _181  and  _182
REMARK   78  A    between atoms: _181  and  _184
REMARK   79  A    between atoms: _184  and  _185
REMARK   80  A    between atoms: _188  and  _190
REMARK   81  A    between atoms: _190  and  _191
REMARK   82  A    between atoms: _190  and  _193
REMARK   83  A    between atoms: _193  and  _194
REMARK   84  A    between atoms: _194  and  _195
REMARK   85  A    between atoms: _198  and  _200
REMARK   86  A    between atoms: _200  and  _201
REMARK   87  A    between atoms: _200  and  _203
REMARK   88  A    between atoms: _203  and  _204
REMARK   89  A    between atoms: _206  and  _208
REMARK   90  A    between atoms: _208  and  _209
REMARK   91  A    between atoms: _208  and  _211
REMARK   92  A    between atoms: _211  and  _212
REMARK   93  A    between atoms: _214  and  _216
REMARK   94  A    between atoms: _216  and  _217
REMARK   95  A    between atoms: _216  and  _219
REMARK   96  A    between atoms: _219  and  _220
REMARK   97  A    between atoms: _225  and  _227
REMARK   98  A    between atoms: _227  and  _228
REMARK   99  A    between atoms: _227  and  _230
REMARK  100  A    between atoms: _230  and  _231
REMARK  101  A    between atoms: _234  and  _236
REMARK  102  A    between atoms: _236  and  _237
REMARK  103  A    between atoms: _236  and  _239
REMARK  104  A    between atoms: _239  and  _240
REMARK  105  A    between atoms: _245  and  _247
REMARK  106  A    between atoms: _247  and  _248
REMARK  107  A    between atoms: _247  and  _250
REMARK  108  A    between atoms: _250  and  _251
REMARK  109  A    between atoms: _257  and  _259
REMARK  110  A    between atoms: _259  and  _260
REMARK  111  A    between atoms: _259  and  _262
REMARK  112  A    between atoms: _262  and  _263
REMARK  113  A    between atoms: _263  and  _264
REMARK  114  A    between atoms: _269  and  _271
REMARK  115  A    between atoms: _271  and  _272
REMARK  116  A    between atoms: _271  and  _274
REMARK  117  A    between atoms: _274  and  _275
REMARK  118  A    between atoms: _277  and  _279
REMARK  119  A    between atoms: _279  and  _280
REMARK  120  A    between atoms: _279  and  _282
REMARK  121  A    between atoms: _282  and  _283
REMARK  122  A    between atoms: _285  and  _287
REMARK  123  A    between atoms: _287  and  _288
REMARK  124  A    between atoms: _287  and  _290
REMARK  125  A    between atoms: _290  and  _291
REMARK  126  A    between atoms: _294  and  _296
REMARK  127  A    between atoms: _296  and  _297
REMARK  128  A    between atoms: _296  and  _299
REMARK  129  A    between atoms: _299  and  _300
REMARK  130  A    between atoms: _305  and  _306
REMARK  131  A    between atoms: _308  and  _310
REMARK  132  A    between atoms: _310  and  _311
REMARK  133  A    between atoms: _310  and  _313
REMARK  134  A    between atoms: _313  and  _314
REMARK  135  A    between atoms: _317  and  _319
REMARK  136  A    between atoms: _319  and  _320
REMARK  137  A    between atoms: _319  and  _322
REMARK  138  A    between atoms: _322  and  _323
REMARK  139  A    between atoms: _328  and  _330
REMARK  140  A    between atoms: _330  and  _331
REMARK  141  A    between atoms: _330  and  _333
REMARK  142  A    between atoms: _333  and  _334
REMARK  143  A    between atoms: _337  and  _339
REMARK  144  A    between atoms: _339  and  _340
REMARK  145  A    between atoms: _339  and  _342
REMARK  146  A    between atoms: _342  and  _343
REMARK  147  A    between atoms: _343  and  _344
REMARK  148  A    between atoms: _347  and  _349
REMARK  149  A    between atoms: _349  and  _350
REMARK  150  A    between atoms: _349  and  _352
REMARK  151  A    between atoms: _352  and  _353
REMARK  152  A    between atoms: _356  and  _358
REMARK  153  A    between atoms: _358  and  _359
REMARK  154  A    between atoms: _362  and  _364
REMARK  155  A    between atoms: _364  and  _365
REMARK  156  A    between atoms: _364  and  _367
REMARK  157  A    between atoms: _367  and  _368
REMARK  158  A    between atoms: _368  and  _369
REMARK  159  A    between atoms: _369  and  _370
REMARK  160  A    between atoms: _370  and  _371
REMARK  161  A    between atoms: _375  and  _377
REMARK  162  A    between atoms: _377  and  _378
REMARK  163  A    between atoms: _377  and  _380
REMARK  164  A    between atoms: _380  and  _381
REMARK  165  A    between atoms: _381  and  _382
REMARK  166  A    between atoms: _387  and  _389
REMARK  167  A    between atoms: _389  and  _390
REMARK  168  A    between atoms: _389  and  _392
REMARK  169  A    between atoms: _392  and  _393
REMARK  170  A    between atoms: _393  and  _394
REMARK  171  A    between atoms: _397  and  _399
REMARK  172  A    between atoms: _399  and  _400
REMARK  173  A    between atoms: _399  and  _402
REMARK  174  A    between atoms: _402  and  _403
REMARK  175  A    between atoms: _406  and  _408
REMARK  176  A    between atoms: _408  and  _409
REMARK  177  A    between atoms: _408  and  _411
REMARK  178  A    between atoms: _411  and  _412
REMARK  179  A    between atoms: _415  and  _417
REMARK  180  A    between atoms: _417  and  _418
REMARK  181  A    between atoms: _417  and  _420
REMARK  182  A    between atoms: _420  and  _421
REMARK  183  A    between atoms: _424  and  _426
REMARK  184  A    between atoms: _426  and  _427
REMARK  185  A    between atoms: _426  and  _429
REMARK  186  A    between atoms: _429  and  _430
REMARK  187  A    between atoms: _433  and  _435
REMARK  188  A    between atoms: _435  and  _436
REMARK  189  A    between atoms: _435  and  _438
REMARK  190  A    between atoms: _438  and  _439
REMARK  191  A    between atoms: _439  and  _440
REMARK  192  A    between atoms: _440  and  _441
REMARK  193  A    between atoms: _441  and  _442
REMARK  194  A    between atoms: _446  and  _448
REMARK  195  A    between atoms: _448  and  _449
REMARK  196  A    between atoms: _448  and  _451
REMARK  197  A    between atoms: _451  and  _452
REMARK  198  A    between atoms: _452  and  _453
REMARK  199  A    between atoms: _453  and  _454
REMARK  200  A    between atoms: _463  and  _465
REMARK  201  A    between atoms: _465  and  _466
REMARK  202  A    between atoms: _465  and  _468
REMARK  203  A    between atoms: _468  and  _469
REMARK  204  A    between atoms: _472  and  _474
REMARK  205  A    between atoms: _474  and  _475
REMARK  206  A    between atoms: _474  and  _477
REMARK  207  A    between atoms: _477  and  _478
REMARK  208  A    between atoms: _481  and  _483
REMARK  209  A    between atoms: _483  and  _484
REMARK  210  A    between atoms: _483  and  _486
REMARK  211  A    between atoms: _486  and  _487
REMARK  212  A    between atoms: _493  and  _495
REMARK  213  A    between atoms: _495  and  _496
REMARK  214  A    between atoms: _495  and  _498
REMARK  215  A    between atoms: _498  and  _499
REMARK  216  A    between atoms: _499  and  _500
REMARK  217  A    between atoms: _503  and  _505
REMARK  218  A    between atoms: _505  and  _506
REMARK  219  A    between atoms: _505  and  _508
REMARK  220  A    between atoms: _508  and  _509
REMARK  221  A    between atoms: _514  and  _516
REMARK  222  A    between atoms: _516  and  _517
REMARK  223  A    between atoms: _520  and  _522
REMARK  224  A    between atoms: _522  and  _523
REMARK  225  A    between atoms: _522  and  _525
REMARK  226  A    between atoms: _525  and  _526
REMARK  227  A    between atoms: _526  and  _527
REMARK  228  A    between atoms: _527  and  _528
REMARK  229  A    between atoms: _528  and  _529
REMARK  230  A    between atoms: _533  and  _535
REMARK  231  A    between atoms: _535  and  _536
REMARK  232  A    between atoms: _535  and  _538
REMARK  233  A    between atoms: _538  and  _539
REMARK  234  A    between atoms: _541  and  _543
REMARK  235  A    between atoms: _543  and  _544
REMARK  236  A    between atoms: _543  and  _546
REMARK  237  A    between atoms: _549  and  _551
REMARK  238  A    between atoms: _551  and  _552
REMARK  239  A    between atoms: _551  and  _554
REMARK  240  A    between atoms: _554  and  _555
REMARK  241  A    between atoms: _560  and  _561
REMARK  242  A    between atoms: _563  and  _565
REMARK  243  A    between atoms: _565  and  _566
REMARK  244  A    between atoms: _565  and  _568
REMARK  245  A    between atoms: _568  and  _569
REMARK  246  A    between atoms: _574  and  _575
REMARK  247  A    between atoms: _577  and  _579
REMARK  248  A    between atoms: _579  and  _580
REMARK  249  A    between atoms: _579  and  _582
REMARK  250  A    between atoms: _582  and  _583
REMARK  251  A    between atoms: _589  and  _591
REMARK  252  A    between atoms: _591  and  _592
REMARK  253  A    between atoms: _591  and  _594
REMARK  254  A    between atoms: _594  and  _595
REMARK  255  A    between atoms: _595  and  _596
REMARK  256  A    between atoms: _598  and  _600
REMARK  257  A    between atoms: _600  and  _601
REMARK  258  A    between atoms: _600  and  _603
REMARK  259  A    between atoms: _603  and  _604
REMARK  260  A    between atoms: _604  and  _605
REMARK  261  A    between atoms: _605  and  _606
REMARK                            x       y       z     vdW  Elec       q    Type
REMARK                         _______ _______ _______ _____ _____    ______ ____
ROOT
ATOM      1  CG  TYR A   1     -41.520  -1.044  33.682  0.00  0.00    -0.020 A 
ATOM      2  CD2 TYR A   1     -41.106  -2.368  33.717  0.00  0.00    -0.001 A 
ATOM      3  CE2 TYR A   1     -41.925  -3.393  33.246  0.00  0.00    +0.036 A 
ATOM      4  CZ  TYR A   1     -43.160  -3.087  32.710  0.00  0.00    +0.134 A 
ATOM      5  CE1 TYR A   1     -43.593  -1.778  32.656  0.00  0.00    +0.036 A 
ATOM      6  CD1 TYR A   1     -42.769  -0.759  33.135  0.00  0.00    -0.001 A 
ENDROOT
BRANCH   4   7
ATOM      7  OH  TYR A   1     -43.970  -4.099  32.248  0.00  0.00    -0.506 OA
ATOM      8  HH  TYR A   1     -43.508  -4.967  32.361  0.00  0.00    +0.292 HD
ENDBRANCH   4   7
BRANCH   1   9
ATOM      9  CB  TYR A   1     -40.619   0.062  34.180  0.00  0.00    +0.051 C 
BRANCH   9  10
ATOM     10  CA  TYR A   1     -40.607   0.286  35.700  0.00  0.00    +0.137 C 
BRANCH  10  11
ATOM     11  N   TYR A   1     -41.715   1.145  36.095  0.00  0.00    -0.239 NA
ATOM     12  H   TYR A   1     -41.677   2.157  35.856  0.00  0.00    +0.142 HD
ENDBRANCH  10  11
BRANCH  10  13
ATOM     13  C   TYR A   1     -39.231   0.847  36.077  0.00  0.00    +0.224 C 
ATOM     14  O   TYR A   1     -38.966   2.037  35.930  0.00  0.00    -0.287 OA
ENDBRANCH  10  13
ENDBRANCH   9  10
ENDBRANCH   1   9
TORSDOF 5
REMARK  Name = ../refined-set-2016/4u0w/4u0w_pocket.pdb
REMARK  261 active torsions:
REMARK  status: ('A' for Active; 'I' for Inactive)
REMARK    1  A    between atoms: _1  and  _3
REMARK    2  A    between atoms: _3  and  _4
REMARK    3  A    between atoms: _3  and  _6
REMARK    4  A    between atoms: _6  and  _7
REMARK    5  A    between atoms: _7  and  _8
REMARK    6  A    between atoms: _13  and  _15
REMARK    7  A    between atoms: _15  and  _16
REMARK    8  A    between atoms: _15  and  _18
REMARK    9  A    between atoms: _18  and  _19
REMARK   10  A    between atoms: _22  and  _24
REMARK   11  A    between atoms: _24  and  _25
REMARK   12  A    between atoms: _24  and  _27
REMARK   13  A    between atoms: _27  and  _28
REMARK   14  A    between atoms: _31  and  _33
REMARK   15  A    between atoms: _33  and  _34
REMARK   16  A    between atoms: _33  and  _36
REMARK   17  A    between atoms: _36  and  _37
REMARK   18  A    between atoms: _40  and  _42
REMARK   19  A    between atoms: _42  and  _43
REMARK   20  A    between atoms: _42  and  _45
REMARK   21  A    between atoms: _45  and  _46
REMARK   22  A    between atoms: _48  and  _50
REMARK   23  A    between atoms: _50  and  _51
REMARK   24  A    between atoms: _50  and  _53
REMARK   25  A    between atoms: _53  and  _54
REMARK   26  A    between atoms: _60  and  _62
REMARK   27  A    between atoms: _62  and  _63
REMARK   28  A    between atoms: _62  and  _65
REMARK   29  A    between atoms: _65  and  _66
REMARK   30  A    between atoms: _69  and  _71
REMARK   31  A    between atoms: _71  and  _72
REMARK   32  A    between atoms: _71  and  _74
REMARK   33  A    between atoms: _74  and  _75
REMARK   34  A    between atoms: _75  and  _76
REMARK   35  A    between atoms: _79  and  _81
REMARK   36  A    between atoms: _81  and  _82
REMARK   37  A    between atoms: _81  and  _84
REMARK   38  A    between atoms: _84  and  _85
REMARK   39  A    between atoms: _88  and  _90
REMARK   40  A    between atoms: _90  and  _91
REMARK   41  A    between atoms: _90  and  _93
REMARK   42  A    between atoms: _93  and  _94
REMARK   43  A    between atoms: _94  and  _95
REMARK   44  A    between atoms: _97  and  _99
REMARK   45  A    between atoms: _99  and  _100
REMARK   46  A    between atoms: _99  and  _102
REMARK   47  A    between atoms: _102  and  _103
REMARK   48  A    between atoms: _103  and  _104
REMARK   49  A    between atoms: _104  and  _105
REMARK   50  A    between atoms: _105  and  _106
REMARK   51  A    between atoms: _111  and  _112
REMARK   52  A    between atoms: _117  and  _119
REMARK   53  A    between atoms: _119  and  _120
REMARK   54  A    between atoms: _122  and  _124
REMARK   55  A    between atoms: _124  and  _125
REMARK   56  A    between atoms: _124  and  _127
REMARK   57  A    between atoms: _127  and  _128
REMARK   58  A    between atoms: _130  and  _132
REMARK   59  A    between atoms: _132  and  _133
REMARK   60  A    between atoms: _132  and  _135
REMARK   61  A    between atoms: _135  and  _136
REMARK   62  A    between atoms: _139  and  _141
REMARK   63  A    between atoms: _141  and  _142
REMARK   64  A    between atoms: _141  and  _144
REMARK   65  A    between atoms: _144  and  _145
REMARK   66  A    between atoms: _145  and  _146
REMARK   67  A    between atoms: _146  and  _147
REMARK   68  A    between atoms: _156  and  _158
REMARK   69  A    between atoms: _158  and  _159
REMARK   70  A    between atoms: _158  and  _161
REMARK   71  A    between atoms: _161  and  _162
REMARK   72  A    between atoms: _162  and  _163
REMARK   73  A    between atoms: _163  and  _164
REMARK   74  A    between atoms: _173  and  _175
REMARK   75  A    between atoms: _175  and  _176
REMARK   76  A    between atoms: _179  and  _181
REMARK   77  A    between atoms: _181  and  _182
REMARK   78  A    between atoms: _181  and  _184
REMARK   79  A    between atoms: _184  and  _185
REMARK   80  A    between atoms: _188  and  _190
REMARK   81  A    between atoms: _190  and  _191
REMARK   82  A    between atoms: _190  and  _193
REMARK   83  A    between atoms: _193  and  _194
REMARK   84  A    between atoms: _194  and  _195
REMARK   85  A    between atoms: _198  and  _200
REMARK   86  A    between atoms: _200  and  _201
REMARK   87  A    between atoms: _200  and  _203
REMARK   88  A    between atoms: _203  and  _204
REMARK   89  A    between atoms: _206  and  _208
REMARK   90  A    between atoms: _208  and  _209
REMARK   91  A    between atoms: _208  and  _211
REMARK   92  A    between atoms: _211  and  _212
REMARK   93  A    between atoms: _214  and  _216
REMARK   94  A    between atoms: _216  and  _217
REMARK   95  A    between atoms: _216  and  _219
REMARK   96  A    between atoms: _219  and  _220
REMARK   97  A    between atoms: _225  and  _227
REMARK   98  A    between atoms: _227  and  _228
REMARK   99  A    between atoms: _227  and  _230
REMARK  100  A    between atoms: _230  and  _231
REMARK  101  A    between atoms: _234  and  _236
REMARK  102  A    between atoms: _236  and  _237
REMARK  103  A    between atoms: _236  and  _239
REMARK  104  A    between atoms: _239  and  _240
REMARK  105  A    between atoms: _245  and  _247
REMARK  106  A    between atoms: _247  and  _248
REMARK  107  A    between atoms: _247  and  _250
REMARK  108  A    between atoms: _250  and  _251
REMARK  109  A    between atoms: _257  and  _259
REMARK  110  A    between atoms: _259  and  _260
REMARK  111  A    between atoms: _259  and  _262
REMARK  112  A    between atoms: _262  and  _263
REMARK  113  A    between atoms: _263  and  _264
REMARK  114  A    between atoms: _269  and  _271
REMARK  115  A    between atoms: _271  and  _272
REMARK  116  A    between atoms: _271  and  _274
REMARK  117  A    between atoms: _274  and  _275
REMARK  118  A    between atoms: _277  and  _279
REMARK  119  A    between atoms: _279  and  _280
REMARK  120  A    between atoms: _279  and  _282
REMARK  121  A    between atoms: _282  and  _283
REMARK  122  A    between atoms: _285  and  _287
REMARK  123  A    between atoms: _287  and  _288
REMARK  124  A    between atoms: _287  and  _290
REMARK  125  A    between atoms: _290  and  _291
REMARK  126  A    between atoms: _294  and  _296
REMARK  127  A    between atoms: _296  and  _297
REMARK  128  A    between atoms: _296  and  _299
REMARK  129  A    between atoms: _299  and  _300
REMARK  130  A    between atoms: _305  and  _306
REMARK  131  A    between atoms: _308  and  _310
REMARK  132  A    between atoms: _310  and  _311
REMARK  133  A    between atoms: _310  and  _313
REMARK  134  A    between atoms: _313  and  _314
REMARK  135  A    between atoms: _317  and  _319
REMARK  136  A    between atoms: _319  and  _320
REMARK  137  A    between atoms: _319  and  _322
REMARK  138  A    between atoms: _322  and  _323
REMARK  139  A    between atoms: _328  and  _330
REMARK  140  A    between atoms: _330  and  _331
REMARK  141  A    between atoms: _330  and  _333
REMARK  142  A    between atoms: _333  and  _334
REMARK  143  A    between atoms: _337  and  _339
REMARK  144  A    between atoms: _339  and  _340
REMARK  145  A    between atoms: _339  and  _342
REMARK  146  A    between atoms: _342  and  _343
REMARK  147  A    between atoms: _343  and  _344
REMARK  148  A    between atoms: _347  and  _349
REMARK  149  A    between atoms: _349  and  _350
REMARK  150  A    between atoms: _349  and  _352
REMARK  151  A    between atoms: _352  and  _353
REMARK  152  A    between atoms: _356  and  _358
REMARK  153  A    between atoms: _358  and  _359
REMARK  154  A    between atoms: _362  and  _364
REMARK  155  A    between atoms: _364  and  _365
REMARK  156  A    between atoms: _364  and  _367
REMARK  157  A    between atoms: _367  and  _368
REMARK  158  A    between atoms: _368  and  _369
REMARK  159  A    between atoms: _369  and  _370
REMARK  160  A    between atoms: _370  and  _371
REMARK  161  A    between atoms: _375  and  _377
REMARK  162  A    between atoms: _377  and  _378
REMARK  163  A    between atoms: _377  and  _380
REMARK  164  A    between atoms: _380  and  _381
REMARK  165  A    between atoms: _381  and  _382
REMARK  166  A    between atoms: _387  and  _389
REMARK  167  A    between atoms: _389  and  _390
REMARK  168  A    between atoms: _389  and  _392
REMARK  169  A    between atoms: _392  and  _393
REMARK  170  A    between atoms: _393  and  _394
REMARK  171  A    between atoms: _397  and  _399
REMARK  172  A    between atoms: _399  and  _400
REMARK  173  A    between atoms: _399  and  _402
REMARK  174  A    between atoms: _402  and  _403
REMARK  175  A    between atoms: _406  and  _408
REMARK  176  A    between atoms: _408  and  _409
REMARK  177  A    between atoms: _408  and  _411
REMARK  178  A    between atoms: _411  and  _412
REMARK  179  A    between atoms: _415  and  _417
REMARK  180  A    between atoms: _417  and  _418
REMARK  181  A    between atoms: _417  and  _420
REMARK  182  A    between atoms: _420  and  _421
REMARK  183  A    between atoms: _424  and  _426
REMARK  184  A    between atoms: _426  and  _427
REMARK  185  A    between atoms: _426  and  _429
REMARK  186  A    between atoms: _429  and  _430
REMARK  187  A    between atoms: _433  and  _435
REMARK  188  A    between atoms: _435  and  _436
REMARK  189  A    between atoms: _435  and  _438
REMARK  190  A    between atoms: _438  and  _439
REMARK  191  A    between atoms: _439  and  _440
REMARK  192  A    between atoms: _440  and  _441
REMARK  193  A    between atoms: _441  and  _442
REMARK  194  A    between atoms: _446  and  _448
REMARK  195  A    between atoms: _448  and  _449
REMARK  196  A    between atoms: _448  and  _451
REMARK  197  A    between atoms: _451  and  _452
REMARK  198  A    between atoms: _452  and  _453
REMARK  199  A    between atoms: _453  and  _454
REMARK  200  A    between atoms: _463  and  _465
REMARK  201  A    between atoms: _465  and  _466
REMARK  202  A    between atoms: _465  and  _468
REMARK  203  A    between atoms: _468  and  _469
REMARK  204  A    between atoms: _472  and  _474
REMARK  205  A    between atoms: _474  and  _475
REMARK  206  A    between atoms: _474  and  _477
REMARK  207  A    between atoms: _477  and  _478
REMARK  208  A    between atoms: _481  and  _483
REMARK  209  A    between atoms: _483  and  _484
REMARK  210  A    between atoms: _483  and  _486
REMARK  211  A    between atoms: _486  and  _487
REMARK  212  A    between atoms: _493  and  _495
REMARK  213  A    between atoms: _495  and  _496
REMARK  214  A    between atoms: _495  and  _498
REMARK  215  A    between atoms: _498  and  _499
REMARK  216  A    between atoms: _499  and  _500
REMARK  217  A    between atoms: _503  and  _505
REMARK  218  A    between atoms: _505  and  _506
REMARK  219  A    between atoms: _505  and  _508
REMARK  220  A    between atoms: _508  and  _509
REMARK  221  A    between atoms: _514  and  _516
REMARK  222  A    between atoms: _516  and  _517
REMARK  223  A    between atoms: _520  and  _522
REMARK  224  A    between atoms: _522  and  _523
REMARK  225  A    between atoms: _522  and  _525
REMARK  226  A    between atoms: _525  and  _526
REMARK  227  A    between atoms: _526  and  _527
REMARK  228  A    between atoms: _527  and  _528
REMARK  229  A    between atoms: _528  and  _529
REMARK  230  A    between atoms: _533  and  _535
REMARK  231  A    between atoms: _535  and  _536
REMARK  232  A    between atoms: _535  and  _538
REMARK  233  A    between atoms: _538  and  _539
REMARK  234  A    between atoms: _541  and  _543
REMARK  235  A    between atoms: _543  and  _544
REMARK  236  A    between atoms: _543  and  _546
REMARK  237  A    between atoms: _549  and  _551
REMARK  238  A    between atoms: _551  and  _552
REMARK  239  A    between atoms: _551  and  _554
REMARK  240  A    between atoms: _554  and  _555
REMARK  241  A    between atoms: _560  and  _561
REMARK  242  A    between atoms: _563  and  _565
REMARK  243  A    between atoms: _565  and  _566
REMARK  244  A    between atoms: _565  and  _568
REMARK  245  A    between atoms: _568  and  _569
REMARK  246  A    between atoms: _574  and  _575
REMARK  247  A    between atoms: _577  and  _579
REMARK  248  A    between atoms: _579  and  _580
REMARK  249  A    between atoms: _579  and  _582
REMARK  250  A    between atoms: _582  and  _583
REMARK  251  A    between atoms: _589  and  _591
REMARK  252  A    between atoms: _591  and  _592
REMARK  253  A    between atoms: _591  and  _594
REMARK  254  A    between atoms: _594  and  _595
REMARK  255  A    between atoms: _595  and  _596
REMARK  256  A    between atoms: _598  and  _600
REMARK  257  A    between atoms: _600  and  _601
REMARK  258  A    between atoms: _600  and  _603
REMARK  259  A    between atoms: _603  and  _604
REMARK  260  A    between atoms: _604  and  _605
REMARK  261  A    between atoms: _605  and  _606
REMARK                            x       y       z     vdW  Elec       q    Type
REMARK                         _______ _______ _______ _____ _____    ______ ____
ROOT
ATOM      1  CB  PHE A   1     -34.637  -0.921  32.524  0.00  0.00    +0.051 C 
ENDROOT
BRANCH   1   2
ATOM      2  CG  PHE A   1     -36.007  -0.648  31.997  0.00  0.00    -0.020 A 
ATOM      3  CD2 PHE A   1     -36.641   0.551  32.268  0.00  0.00    -0.004 A 
ATOM      4  CE2 PHE A   1     -37.929   0.785  31.831  0.00  0.00    -0.000 A 
ATOM      5  CZ  PHE A   1     -38.596  -0.191  31.107  0.00  0.00    -0.000 A 
ATOM      6  CE1 PHE A   1     -37.979  -1.388  30.839  0.00  0.00    -0.000 A 
ATOM      7  CD1 PHE A   1     -36.695  -1.621  31.290  0.00  0.00    -0.004 A 
ENDBRANCH   1   2
BRANCH   1   8
ATOM      8  CA  PHE A   1     -34.652  -1.395  33.984  0.00  0.00    +0.137 C 
BRANCH   8   9
ATOM      9  N   PHE A   1     -35.328  -0.413  34.817  0.00  0.00    -0.239 NA
ATOM     10  H   PHE A   1     -35.121   0.600  34.706  0.00  0.00    +0.142 HD
ENDBRANCH   8   9
BRANCH   8  11
ATOM     11  C   PHE A   1     -33.251  -1.678  34.492  0.00  0.00    +0.224 C 
ATOM     12  O   PHE A   1     -32.448  -0.763  34.665  0.00  0.00    -0.287 OA
ENDBRANCH   8  11
ENDBRANCH   1   8
TORSDOF 4
REMARK  Name = ../refined-set-2016/4u0w/4u0w_pocket.pdb
REMARK  261 active torsions:
REMARK  status: ('A' for Active; 'I' for Inactive)
REMARK    1  A    between atoms: _1  and  _3
REMARK    2  A    between atoms: _3  and  _4
REMARK    3  A    between atoms: _3  and  _6
REMARK    4  A    between atoms: _6  and  _7
REMARK    5  A    between atoms: _7  and  _8
REMARK    6  A    between atoms: _13  and  _15
REMARK    7  A    between atoms: _15  and  _16
REMARK    8  A    between atoms: _15  and  _18
REMARK    9  A    between atoms: _18  and  _19
REMARK   10  A    between atoms: _22  and  _24
REMARK   11  A    between atoms: _24  and  _25
REMARK   12  A    between atoms: _24  and  _27
REMARK   13  A    between atoms: _27  and  _28
REMARK   14  A    between atoms: _31  and  _33
REMARK   15  A    between atoms: _33  and  _34
REMARK   16  A    between atoms: _33  and  _36
REMARK   17  A    between atoms: _36  and  _37
REMARK   18  A    between atoms: _40  and  _42
REMARK   19  A    between atoms: _42  and  _43
REMARK   20  A    between atoms: _42  and  _45
REMARK   21  A    between atoms: _45  and  _46
REMARK   22  A    between atoms: _48  and  _50
REMARK   23  A    between atoms: _50  and  _51
REMARK   24  A    between atoms: _50  and  _53
REMARK   25  A    between atoms: _53  and  _54
REMARK   26  A    between atoms: _60  and  _62
REMARK   27  A    between atoms: _62  and  _63
REMARK   28  A    between atoms: _62  and  _65
REMARK   29  A    between atoms: _65  and  _66
REMARK   30  A    between atoms: _69  and  _71
REMARK   31  A    between atoms: _71  and  _72
REMARK   32  A    between atoms: _71  and  _74
REMARK   33  A    between atoms: _74  and  _75
REMARK   34  A    between atoms: _75  and  _76
REMARK   35  A    between atoms: _79  and  _81
REMARK   36  A    between atoms: _81  and  _82
REMARK   37  A    between atoms: _81  and  _84
REMARK   38  A    between atoms: _84  and  _85
REMARK   39  A    between atoms: _88  and  _90
REMARK   40  A    between atoms: _90  and  _91
REMARK   41  A    between atoms: _90  and  _93
REMARK   42  A    between atoms: _93  and  _94
REMARK   43  A    between atoms: _94  and  _95
REMARK   44  A    between atoms: _97  and  _99
REMARK   45  A    between atoms: _99  and  _100
REMARK   46  A    between atoms: _99  and  _102
REMARK   47  A    between atoms: _102  and  _103
REMARK   48  A    between atoms: _103  and  _104
REMARK   49  A    between atoms: _104  and  _105
REMARK   50  A    between atoms: _105  and  _106
REMARK   51  A    between atoms: _111  and  _112
REMARK   52  A    between atoms: _117  and  _119
REMARK   53  A    between atoms: _119  and  _120
REMARK   54  A    between atoms: _122  and  _124
REMARK   55  A    between atoms: _124  and  _125
REMARK   56  A    between atoms: _124  and  _127
REMARK   57  A    between atoms: _127  and  _128
REMARK   58  A    between atoms: _130  and  _132
REMARK   59  A    between atoms: _132  and  _133
REMARK   60  A    between atoms: _132  and  _135
REMARK   61  A    between atoms: _135  and  _136
REMARK   62  A    between atoms: _139  and  _141
REMARK   63  A    between atoms: _141  and  _142
REMARK   64  A    between atoms: _141  and  _144
REMARK   65  A    between atoms: _144  and  _145
REMARK   66  A    between atoms: _145  and  _146
REMARK   67  A    between atoms: _146  and  _147
REMARK   68  A    between atoms: _156  and  _158
REMARK   69  A    between atoms: _158  and  _159
REMARK   70  A    between atoms: _158  and  _161
REMARK   71  A    between atoms: _161  and  _162
REMARK   72  A    between atoms: _162  and  _163
REMARK   73  A    between atoms: _163  and  _164
REMARK   74  A    between atoms: _173  and  _175
REMARK   75  A    between atoms: _175  and  _176
REMARK   76  A    between atoms: _179  and  _181
REMARK   77  A    between atoms: _181  and  _182
REMARK   78  A    between atoms: _181  and  _184
REMARK   79  A    between atoms: _184  and  _185
REMARK   80  A    between atoms: _188  and  _190
REMARK   81  A    between atoms: _190  and  _191
REMARK   82  A    between atoms: _190  and  _193
REMARK   83  A    between atoms: _193  and  _194
REMARK   84  A    between atoms: _194  and  _195
REMARK   85  A    between atoms: _198  and  _200
REMARK   86  A    between atoms: _200  and  _201
REMARK   87  A    between atoms: _200  and  _203
REMARK   88  A    between atoms: _203  and  _204
REMARK   89  A    between atoms: _206  and  _208
REMARK   90  A    between atoms: _208  and  _209
REMARK   91  A    between atoms: _208  and  _211
REMARK   92  A    between atoms: _211  and  _212
REMARK   93  A    between atoms: _214  and  _216
REMARK   94  A    between atoms: _216  and  _217
REMARK   95  A    between atoms: _216  and  _219
REMARK   96  A    between atoms: _219  and  _220
REMARK   97  A    between atoms: _225  and  _227
REMARK   98  A    between atoms: _227  and  _228
REMARK   99  A    between atoms: _227  and  _230
REMARK  100  A    between atoms: _230  and  _231
REMARK  101  A    between atoms: _234  and  _236
REMARK  102  A    between atoms: _236  and  _237
REMARK  103  A    between atoms: _236  and  _239
REMARK  104  A    between atoms: _239  and  _240
REMARK  105  A    between atoms: _245  and  _247
REMARK  106  A    between atoms: _247  and  _248
REMARK  107  A    between atoms: _247  and  _250
REMARK  108  A    between atoms: _250  and  _251
REMARK  109  A    between atoms: _257  and  _259
REMARK  110  A    between atoms: _259  and  _260
REMARK  111  A    between atoms: _259  and  _262
REMARK  112  A    between atoms: _262  and  _263
REMARK  113  A    between atoms: _263  and  _264
REMARK  114  A    between atoms: _269  and  _271
REMARK  115  A    between atoms: _271  and  _272
REMARK  116  A    between atoms: _271  and  _274
REMARK  117  A    between atoms: _274  and  _275
REMARK  118  A    between atoms: _277  and  _279
REMARK  119  A    between atoms: _279  and  _280
REMARK  120  A    between atoms: _279  and  _282
REMARK  121  A    between atoms: _282  and  _283
REMARK  122  A    between atoms: _285  and  _287
REMARK  123  A    between atoms: _287  and  _288
REMARK  124  A    between atoms: _287  and  _290
REMARK  125  A    between atoms: _290  and  _291
REMARK  126  A    between atoms: _294  and  _296
REMARK  127  A    between atoms: _296  and  _297
REMARK  128  A    between atoms: _296  and  _299
REMARK  129  A    between atoms: _299  and  _300
REMARK  130  A    between atoms: _305  and  _306
REMARK  131  A    between atoms: _308  and  _310
REMARK  132  A    between atoms: _310  and  _311
REMARK  133  A    between atoms: _310  and  _313
REMARK  134  A    between atoms: _313  and  _314
REMARK  135  A    between atoms: _317  and  _319
REMARK  136  A    between atoms: _319  and  _320
REMARK  137  A    between atoms: _319  and  _322
REMARK  138  A    between atoms: _322  and  _323
REMARK  139  A    between atoms: _328  and  _330
REMARK  140  A    between atoms: _330  and  _331
REMARK  141  A    between atoms: _330  and  _333
REMARK  142  A    between atoms: _333  and  _334
REMARK  143  A    between atoms: _337  and  _339
REMARK  144  A    between atoms: _339  and  _340
REMARK  145  A    between atoms: _339  and  _342
REMARK  146  A    between atoms: _342  and  _343
REMARK  147  A    between atoms: _343  and  _344
REMARK  148  A    between atoms: _347  and  _349
REMARK  149  A    between atoms: _349  and  _350
REMARK  150  A    between atoms: _349  and  _352
REMARK  151  A    between atoms: _352  and  _353
REMARK  152  A    between atoms: _356  and  _358
REMARK  153  A    between atoms: _358  and  _359
REMARK  154  A    between atoms: _362  and  _364
REMARK  155  A    between atoms: _364  and  _365
REMARK  156  A    between atoms: _364  and  _367
REMARK  157  A    between atoms: _367  and  _368
REMARK  158  A    between atoms: _368  and  _369
REMARK  159  A    between atoms: _369  and  _370
REMARK  160  A    between atoms: _370  and  _371
REMARK  161  A    between atoms: _375  and  _377
REMARK  162  A    between atoms: _377  and  _378
REMARK  163  A    between atoms: _377  and  _380
REMARK  164  A    between atoms: _380  and  _381
REMARK  165  A    between atoms: _381  and  _382
REMARK  166  A    between atoms: _387  and  _389
REMARK  167  A    between atoms: _389  and  _390
REMARK  168  A    between atoms: _389  and  _392
REMARK  169  A    between atoms: _392  and  _393
REMARK  170  A    between atoms: _393  and  _394
REMARK  171  A    between atoms: _397  and  _399
REMARK  172  A    between atoms: _399  and  _400
REMARK  173  A    between atoms: _399  and  _402
REMARK  174  A    between atoms: _402  and  _403
REMARK  175  A    between atoms: _406  and  _408
REMARK  176  A    between atoms: _408  and  _409
REMARK  177  A    between atoms: _408  and  _411
REMARK  178  A    between atoms: _411  and  _412
REMARK  179  A    between atoms: _415  and  _417
REMARK  180  A    between atoms: _417  and  _418
REMARK  181  A    between atoms: _417  and  _420
REMARK  182  A    between atoms: _420  and  _421
REMARK  183  A    between atoms: _424  and  _426
REMARK  184  A    between atoms: _426  and  _427
REMARK  185  A    between atoms: _426  and  _429
REMARK  186  A    between atoms: _429  and  _430
REMARK  187  A    between atoms: _433  and  _435
REMARK  188  A    between atoms: _435  and  _436
REMARK  189  A    between atoms: _435  and  _438
REMARK  190  A    between atoms: _438  and  _439
REMARK  191  A    between atoms: _439  and  _440
REMARK  192  A    between atoms: _440  and  _441
REMARK  193  A    between atoms: _441  and  _442
REMARK  194  A    between atoms: _446  and  _448
REMARK  195  A    between atoms: _448  and  _449
REMARK  196  A    between atoms: _448  and  _451
REMARK  197  A    between atoms: _451  and  _452
REMARK  198  A    between atoms: _452  and  _453
REMARK  199  A    between atoms: _453  and  _454
REMARK  200  A    between atoms: _463  and  _465
REMARK  201  A    between atoms: _465  and  _466
REMARK  202  A    between atoms: _465  and  _468
REMARK  203  A    between atoms: _468  and  _469
REMARK  204  A    between atoms: _472  and  _474
REMARK  205  A    between atoms: _474  and  _475
REMARK  206  A    between atoms: _474  and  _477
REMARK  207  A    between atoms: _477  and  _478
REMARK  208  A    between atoms: _481  and  _483
REMARK  209  A    between atoms: _483  and  _484
REMARK  210  A    between atoms: _483  and  _486
REMARK  211  A    between atoms: _486  and  _487
REMARK  212  A    between atoms: _493  and  _495
REMARK  213  A    between atoms: _495  and  _496
REMARK  214  A    between atoms: _495  and  _498
REMARK  215  A    between atoms: _498  and  _499
REMARK  216  A    between atoms: _499  and  _500
REMARK  217  A    between atoms: _503  and  _505
REMARK  218  A    between atoms: _505  and  _506
REMARK  219  A    between atoms: _505  and  _508
REMARK  220  A    between atoms: _508  and  _509
REMARK  221  A    between atoms: _514  and  _516
REMARK  222  A    between atoms: _516  and  _517
REMARK  223  A    between atoms: _520  and  _522
REMARK  224  A    between atoms: _522  and  _523
REMARK  225  A    between atoms: _522  and  _525
REMARK  226  A    between atoms: _525  and  _526
REMARK  227  A    between atoms: _526  and  _527
REMARK  228  A    between atoms: _527  and  _528
REMARK  229  A    between atoms: _528  and  _529
REMARK  230  A    between atoms: _533  and  _535
REMARK  231  A    between atoms: _535  and  _536
REMARK  232  A    between atoms: _535  and  _538
REMARK  233  A    between atoms: _538  and  _539
REMARK  234  A    between atoms: _541  and  _543
REMARK  235  A    between atoms: _543  and  _544
REMARK  236  A    between atoms: _543  and  _546
REMARK  237  A    between atoms: _549  and  _551
REMARK  238  A    between atoms: _551  and  _552
REMARK  239  A    between atoms: _551  and  _554
REMARK  240  A    between atoms: _554  and  _555
REMARK  241  A    between atoms: _560  and  _561
REMARK  242  A    between atoms: _563  and  _565
REMARK  243  A    between atoms: _565  and  _566
REMARK  244  A    between atoms: _565  and  _568
REMARK  245  A    between atoms: _568  and  _569
REMARK  246  A    between atoms: _574  and  _575
REMARK  247  A    between atoms: _577  and  _579
REMARK  248  A    between atoms: _579  and  _580
REMARK  249  A    between atoms: _579  and  _582
REMARK  250  A    between atoms: _582  and  _583
REMARK  251  A    between atoms: _589  and  _591
REMARK  252  A    between atoms: _591  and  _592
REMARK  253  A    between atoms: _591  and  _594
REMARK  254  A    between atoms: _594  and  _595
REMARK  255  A    between atoms: _595  and  _596
REMARK  256  A    between atoms: _598  and  _600
REMARK  257  A    between atoms: _600  and  _601
REMARK  258  A    between atoms: _600  and  _603
REMARK  259  A    between atoms: _603  and  _604
REMARK  260  A    between atoms: _604  and  _605
REMARK  261  A    between atoms: _605  and  _606
REMARK                            x       y       z     vdW  Elec       q    Type
REMARK                         _______ _______ _______ _____ _____    ______ ____
ROOT
ATOM      1  CA  MET A   1     -30.425 -10.642  25.384  0.00  0.00    +0.134 C 
ENDROOT
BRANCH   1   2
ATOM      2  N   MET A   1     -29.763  -9.775  24.423  0.00  0.00    -0.239 NA
ATOM      3  H   MET A   1     -30.011  -9.850  23.416  0.00  0.00    +0.142 HD
ENDBRANCH   1   2
BRANCH   1   4
ATOM      4  C   MET A   1     -30.281 -12.091  24.951  0.00  0.00    +0.224 C 
ATOM      5  O   MET A   1     -30.220 -12.391  23.747  0.00  0.00    -0.287 OA
ENDBRANCH   1   4
BRANCH   1   6
ATOM      6  CB  MET A   1     -31.904 -10.288  25.517  0.00  0.00    +0.037 C 
BRANCH   6   7
ATOM      7  CG  MET A   1     -32.275  -8.887  25.051  0.00  0.00    +0.059 C 
BRANCH   7   8
ATOM      8  SD  MET A   1     -34.065  -8.640  25.133  0.00  0.00    -0.139 S 
ATOM      9  CE  MET A   1     -34.347  -8.599  26.889  0.00  0.00    +0.069 C 
ENDBRANCH   7   8
ENDBRANCH   6   7
ENDBRANCH   1   6
TORSDOF 5
REMARK  Name = ../refined-set-2016/4u0w/4u0w_pocket.pdb
REMARK  261 active torsions:
REMARK  status: ('A' for Active; 'I' for Inactive)
REMARK    1  A    between atoms: _1  and  _3
REMARK    2  A    between atoms: _3  and  _4
REMARK    3  A    between atoms: _3  and  _6
REMARK    4  A    between atoms: _6  and  _7
REMARK    5  A    between atoms: _7  and  _8
REMARK    6  A    between atoms: _13  and  _15
REMARK    7  A    between atoms: _15  and  _16
REMARK    8  A    between atoms: _15  and  _18
REMARK    9  A    between atoms: _18  and  _19
REMARK   10  A    between atoms: _22  and  _24
REMARK   11  A    between atoms: _24  and  _25
REMARK   12  A    between atoms: _24  and  _27
REMARK   13  A    between atoms: _27  and  _28
REMARK   14  A    between atoms: _31  and  _33
REMARK   15  A    between atoms: _33  and  _34
REMARK   16  A    between atoms: _33  and  _36
REMARK   17  A    between atoms: _36  and  _37
REMARK   18  A    between atoms: _40  and  _42
REMARK   19  A    between atoms: _42  and  _43
REMARK   20  A    between atoms: _42  and  _45
REMARK   21  A    between atoms: _45  and  _46
REMARK   22  A    between atoms: _48  and  _50
REMARK   23  A    between atoms: _50  and  _51
REMARK   24  A    between atoms: _50  and  _53
REMARK   25  A    between atoms: _53  and  _54
REMARK   26  A    between atoms: _60  and  _62
REMARK   27  A    between atoms: _62  and  _63
REMARK   28  A    between atoms: _62  and  _65
REMARK   29  A    between atoms: _65  and  _66
REMARK   30  A    between atoms: _69  and  _71
REMARK   31  A    between atoms: _71  and  _72
REMARK   32  A    between atoms: _71  and  _74
REMARK   33  A    between atoms: _74  and  _75
REMARK   34  A    between atoms: _75  and  _76
REMARK   35  A    between atoms: _79  and  _81
REMARK   36  A    between atoms: _81  and  _82
REMARK   37  A    between atoms: _81  and  _84
REMARK   38  A    between atoms: _84  and  _85
REMARK   39  A    between atoms: _88  and  _90
REMARK   40  A    between atoms: _90  and  _91
REMARK   41  A    between atoms: _90  and  _93
REMARK   42  A    between atoms: _93  and  _94
REMARK   43  A    between atoms: _94  and  _95
REMARK   44  A    between atoms: _97  and  _99
REMARK   45  A    between atoms: _99  and  _100
REMARK   46  A    between atoms: _99  and  _102
REMARK   47  A    between atoms: _102  and  _103
REMARK   48  A    between atoms: _103  and  _104
REMARK   49  A    between atoms: _104  and  _105
REMARK   50  A    between atoms: _105  and  _106
REMARK   51  A    between atoms: _111  and  _112
REMARK   52  A    between atoms: _117  and  _119
REMARK   53  A    between atoms: _119  and  _120
REMARK   54  A    between atoms: _122  and  _124
REMARK   55  A    between atoms: _124  and  _125
REMARK   56  A    between atoms: _124  and  _127
REMARK   57  A    between atoms: _127  and  _128
REMARK   58  A    between atoms: _130  and  _132
REMARK   59  A    between atoms: _132  and  _133
REMARK   60  A    between atoms: _132  and  _135
REMARK   61  A    between atoms: _135  and  _136
REMARK   62  A    between atoms: _139  and  _141
REMARK   63  A    between atoms: _141  and  _142
REMARK   64  A    between atoms: _141  and  _144
REMARK   65  A    between atoms: _144  and  _145
REMARK   66  A    between atoms: _145  and  _146
REMARK   67  A    between atoms: _146  and  _147
REMARK   68  A    between atoms: _156  and  _158
REMARK   69  A    between atoms: _158  and  _159
REMARK   70  A    between atoms: _158  and  _161
REMARK   71  A    between atoms: _161  and  _162
REMARK   72  A    between atoms: _162  and  _163
REMARK   73  A    between atoms: _163  and  _164
REMARK   74  A    between atoms: _173  and  _175
REMARK   75  A    between atoms: _175  and  _176
REMARK   76  A    between atoms: _179  and  _181
REMARK   77  A    between atoms: _181  and  _182
REMARK   78  A    between atoms: _181  and  _184
REMARK   79  A    between atoms: _184  and  _185
REMARK   80  A    between atoms: _188  and  _190
REMARK   81  A    between atoms: _190  and  _191
REMARK   82  A    between atoms: _190  and  _193
REMARK   83  A    between atoms: _193  and  _194
REMARK   84  A    between atoms: _194  and  _195
REMARK   85  A    between atoms: _198  and  _200
REMARK   86  A    between atoms: _200  and  _201
REMARK   87  A    between atoms: _200  and  _203
REMARK   88  A    between atoms: _203  and  _204
REMARK   89  A    between atoms: _206  and  _208
REMARK   90  A    between atoms: _208  and  _209
REMARK   91  A    between atoms: _208  and  _211
REMARK   92  A    between atoms: _211  and  _212
REMARK   93  A    between atoms: _214  and  _216
REMARK   94  A    between atoms: _216  and  _217
REMARK   95  A    between atoms: _216  and  _219
REMARK   96  A    between atoms: _219  and  _220
REMARK   97  A    between atoms: _225  and  _227
REMARK   98  A    between atoms: _227  and  _228
REMARK   99  A    between atoms: _227  and  _230
REMARK  100  A    between atoms: _230  and  _231
REMARK  101  A    between atoms: _234  and  _236
REMARK  102  A    between atoms: _236  and  _237
REMARK  103  A    between atoms: _236  and  _239
REMARK  104  A    between atoms: _239  and  _240
REMARK  105  A    between atoms: _245  and  _247
REMARK  106  A    between atoms: _247  and  _248
REMARK  107  A    between atoms: _247  and  _250
REMARK  108  A    between atoms: _250  and  _251
REMARK  109  A    between atoms: _257  and  _259
REMARK  110  A    between atoms: _259  and  _260
REMARK  111  A    between atoms: _259  and  _262
REMARK  112  A    between atoms: _262  and  _263
REMARK  113  A    between atoms: _263  and  _264
REMARK  114  A    between atoms: _269  and  _271
REMARK  115  A    between atoms: _271  and  _272
REMARK  116  A    between atoms: _271  and  _274
REMARK  117  A    between atoms: _274  and  _275
REMARK  118  A    between atoms: _277  and  _279
REMARK  119  A    between atoms: _279  and  _280
REMARK  120  A    between atoms: _279  and  _282
REMARK  121  A    between atoms: _282  and  _283
REMARK  122  A    between atoms: _285  and  _287
REMARK  123  A    between atoms: _287  and  _288
REMARK  124  A    between atoms: _287  and  _290
REMARK  125  A    between atoms: _290  and  _291
REMARK  126  A    between atoms: _294  and  _296
REMARK  127  A    between atoms: _296  and  _297
REMARK  128  A    between atoms: _296  and  _299
REMARK  129  A    between atoms: _299  and  _300
REMARK  130  A    between atoms: _305  and  _306
REMARK  131  A    between atoms: _308  and  _310
REMARK  132  A    between atoms: _310  and  _311
REMARK  133  A    between atoms: _310  and  _313
REMARK  134  A    between atoms: _313  and  _314
REMARK  135  A    between atoms: _317  and  _319
REMARK  136  A    between atoms: _319  and  _320
REMARK  137  A    between atoms: _319  and  _322
REMARK  138  A    between atoms: _322  and  _323
REMARK  139  A    between atoms: _328  and  _330
REMARK  140  A    between atoms: _330  and  _331
REMARK  141  A    between atoms: _330  and  _333
REMARK  142  A    between atoms: _333  and  _334
REMARK  143  A    between atoms: _337  and  _339
REMARK  144  A    between atoms: _339  and  _340
REMARK  145  A    between atoms: _339  and  _342
REMARK  146  A    between atoms: _342  and  _343
REMARK  147  A    between atoms: _343  and  _344
REMARK  148  A    between atoms: _347  and  _349
REMARK  149  A    between atoms: _349  and  _350
REMARK  150  A    between atoms: _349  and  _352
REMARK  151  A    between atoms: _352  and  _353
REMARK  152  A    between atoms: _356  and  _358
REMARK  153  A    between atoms: _358  and  _359
REMARK  154  A    between atoms: _362  and  _364
REMARK  155  A    between atoms: _364  and  _365
REMARK  156  A    between atoms: _364  and  _367
REMARK  157  A    between atoms: _367  and  _368
REMARK  158  A    between atoms: _368  and  _369
REMARK  159  A    between atoms: _369  and  _370
REMARK  160  A    between atoms: _370  and  _371
REMARK  161  A    between atoms: _375  and  _377
REMARK  162  A    between atoms: _377  and  _378
REMARK  163  A    between atoms: _377  and  _380
REMARK  164  A    between atoms: _380  and  _381
REMARK  165  A    between atoms: _381  and  _382
REMARK  166  A    between atoms: _387  and  _389
REMARK  167  A    between atoms: _389  and  _390
REMARK  168  A    between atoms: _389  and  _392
REMARK  169  A    between atoms: _392  and  _393
REMARK  170  A    between atoms: _393  and  _394
REMARK  171  A    between atoms: _397  and  _399
REMARK  172  A    between atoms: _399  and  _400
REMARK  173  A    between atoms: _399  and  _402
REMARK  174  A    between atoms: _402  and  _403
REMARK  175  A    between atoms: _406  and  _408
REMARK  176  A    between atoms: _408  and  _409
REMARK  177  A    between atoms: _408  and  _411
REMARK  178  A    between atoms: _411  and  _412
REMARK  179  A    between atoms: _415  and  _417
REMARK  180  A    between atoms: _417  and  _418
REMARK  181  A    between atoms: _417  and  _420
REMARK  182  A    between atoms: _420  and  _421
REMARK  183  A    between atoms: _424  and  _426
REMARK  184  A    between atoms: _426  and  _427
REMARK  185  A    between atoms: _426  and  _429
REMARK  186  A    between atoms: _429  and  _430
REMARK  187  A    between atoms: _433  and  _435
REMARK  188  A    between atoms: _435  and  _436
REMARK  189  A    between atoms: _435  and  _438
REMARK  190  A    between atoms: _438  and  _439
REMARK  191  A    between atoms: _439  and  _440
REMARK  192  A    between atoms: _440  and  _441
REMARK  193  A    between atoms: _441  and  _442
REMARK  194  A    between atoms: _446  and  _448
REMARK  195  A    between atoms: _448  and  _449
REMARK  196  A    between atoms: _448  and  _451
REMARK  197  A    between atoms: _451  and  _452
REMARK  198  A    between atoms: _452  and  _453
REMARK  199  A    between atoms: _453  and  _454
REMARK  200  A    between atoms: _463  and  _465
REMARK  201  A    between atoms: _465  and  _466
REMARK  202  A    between atoms: _465  and  _468
REMARK  203  A    between atoms: _468  and  _469
REMARK  204  A    between atoms: _472  and  _474
REMARK  205  A    between atoms: _474  and  _475
REMARK  206  A    between atoms: _474  and  _477
REMARK  207  A    between atoms: _477  and  _478
REMARK  208  A    between atoms: _481  and  _483
REMARK  209  A    between atoms: _483  and  _484
REMARK  210  A    between atoms: _483  and  _486
REMARK  211  A    between atoms: _486  and  _487
REMARK  212  A    between atoms: _493  and  _495
REMARK  213  A    between atoms: _495  and  _496
REMARK  214  A    between atoms: _495  and  _498
REMARK  215  A    between atoms: _498  and  _499
REMARK  216  A    between atoms: _499  and  _500
REMARK  217  A    between atoms: _503  and  _505
REMARK  218  A    between atoms: _505  and  _506
REMARK  219  A    between atoms: _505  and  _508
REMARK  220  A    between atoms: _508  and  _509
REMARK  221  A    between atoms: _514  and  _516
REMARK  222  A    between atoms: _516  and  _517
REMARK  223  A    between atoms: _520  and  _522
REMARK  224  A    between atoms: _522  and  _523
REMARK  225  A    between atoms: _522  and  _525
REMARK  226  A    between atoms: _525  and  _526
REMARK  227  A    between atoms: _526  and  _527
REMARK  228  A    between atoms: _527  and  _528
REMARK  229  A    between atoms: _528  and  _529
REMARK  230  A    between atoms: _533  and  _535
REMARK  231  A    between atoms: _535  and  _536
REMARK  232  A    between atoms: _535  and  _538
REMARK  233  A    between atoms: _538  and  _539
REMARK  234  A    between atoms: _541  and  _543
REMARK  235  A    between atoms: _543  and  _544
REMARK  236  A    between atoms: _543  and  _546
REMARK  237  A    between atoms: _549  and  _551
REMARK  238  A    between atoms: _551  and  _552
REMARK  239  A    between atoms: _551  and  _554
REMARK  240  A    between atoms: _554  and  _555
REMARK  241  A    between atoms: _560  and  _561
REMARK  242  A    between atoms: _563  and  _565
REMARK  243  A    between atoms: _565  and  _566
REMARK  244  A    between atoms: _565  and  _568
REMARK  245  A    between atoms: _568  and  _569
REMARK  246  A    between atoms: _574  and  _575
REMARK  247  A    between atoms: _577  and  _579
REMARK  248  A    between atoms: _579  and  _580
REMARK  249  A    between atoms: _579  and  _582
REMARK  250  A    between atoms: _582  and  _583
REMARK  251  A    between atoms: _589  and  _591
REMARK  252  A    between atoms: _591  and  _592
REMARK  253  A    between atoms: _591  and  _594
REMARK  254  A    between atoms: _594  and  _595
REMARK  255  A    between atoms: _595  and  _596
REMARK  256  A    between atoms: _598  and  _600
REMARK  257  A    between atoms: _600  and  _601
REMARK  258  A    between atoms: _600  and  _603
REMARK  259  A    between atoms: _603  and  _604
REMARK  260  A    between atoms: _604  and  _605
REMARK  261  A    between atoms: _605  and  _606
REMARK                            x       y       z     vdW  Elec       q    Type
REMARK                         _______ _______ _______ _____ _____    ______ ____
ROOT
ATOM      1  NE  ARG A   1     -36.923 -18.814  26.523  0.00  0.00    -0.265 N 
ATOM      2  CZ  ARG A   1     -38.089 -18.417  27.026  0.00  0.00    +0.342 C 
ATOM      3  NH2 ARG A   1     -38.278 -17.146  27.359  0.00  0.00    -0.292 N 
ATOM      4 HH21 ARG A   1     -39.192 -16.842  27.752  0.00  0.00    +0.255 HD
ATOM      5 HH22 ARG A   1     -37.512 -16.455  27.227  0.00  0.00    +0.255 HD
ATOM      6  NH1 ARG A   1     -39.067 -19.297  27.210  0.00  0.00    -0.292 N 
ATOM      7 HH11 ARG A   1     -39.978 -18.987  27.603  0.00  0.00    +0.255 HD
ATOM      8 HH12 ARG A   1     -38.921 -20.296  26.961  0.00  0.00    +0.255 HD
ATOM      9  HE  ARG A   1     -36.818 -19.822  26.288  0.00  0.00    +0.259 HD
ENDROOT
BRANCH   1  10
ATOM     10  CD  ARG A   1     -35.779 -17.938  26.276  0.00  0.00    +0.174 C 
BRANCH  10  11
ATOM     11  CG  ARG A   1     -34.567 -18.760  25.872  0.00  0.00    +0.045 C 
BRANCH  11  12
ATOM     12  CB  ARG A   1     -33.439 -17.898  25.354  0.00  0.00    +0.029 C 
BRANCH  12  13
ATOM     13  CA  ARG A   1     -32.672 -17.123  26.427  0.00  0.00    +0.133 C 
BRANCH  13  14
ATOM     14  N   ARG A   1     -31.679 -16.259  25.817  0.00  0.00    -0.239 NA
ATOM     15  H   ARG A   1     -31.277 -16.532  24.897  0.00  0.00    +0.142 HD
ENDBRANCH  13  14
BRANCH  13  16
ATOM     16  C   ARG A   1     -31.952 -18.071  27.378  0.00  0.00    +0.224 C 
ATOM     17  O   ARG A   1     -31.157 -18.905  26.941  0.00  0.00    -0.287 OA
ENDBRANCH  13  16
ENDBRANCH  12  13
ENDBRANCH  11  12
ENDBRANCH  10  11
ENDBRANCH   1  10
TORSDOF 6
REMARK  Name = ../refined-set-2016/4u0w/4u0w_pocket.pdb
REMARK  261 active torsions:
REMARK  status: ('A' for Active; 'I' for Inactive)
REMARK    1  A    between atoms: _1  and  _3
REMARK    2  A    between atoms: _3  and  _4
REMARK    3  A    between atoms: _3  and  _6
REMARK    4  A    between atoms: _6  and  _7
REMARK    5  A    between atoms: _7  and  _8
REMARK    6  A    between atoms: _13  and  _15
REMARK    7  A    between atoms: _15  and  _16
REMARK    8  A    between atoms: _15  and  _18
REMARK    9  A    between atoms: _18  and  _19
REMARK   10  A    between atoms: _22  and  _24
REMARK   11  A    between atoms: _24  and  _25
REMARK   12  A    between atoms: _24  and  _27
REMARK   13  A    between atoms: _27  and  _28
REMARK   14  A    between atoms: _31  and  _33
REMARK   15  A    between atoms: _33  and  _34
REMARK   16  A    between atoms: _33  and  _36
REMARK   17  A    between atoms: _36  and  _37
REMARK   18  A    between atoms: _40  and  _42
REMARK   19  A    between atoms: _42  and  _43
REMARK   20  A    between atoms: _42  and  _45
REMARK   21  A    between atoms: _45  and  _46
REMARK   22  A    between atoms: _48  and  _50
REMARK   23  A    between atoms: _50  and  _51
REMARK   24  A    between atoms: _50  and  _53
REMARK   25  A    between atoms: _53  and  _54
REMARK   26  A    between atoms: _60  and  _62
REMARK   27  A    between atoms: _62  and  _63
REMARK   28  A    between atoms: _62  and  _65
REMARK   29  A    between atoms: _65  and  _66
REMARK   30  A    between atoms: _69  and  _71
REMARK   31  A    between atoms: _71  and  _72
REMARK   32  A    between atoms: _71  and  _74
REMARK   33  A    between atoms: _74  and  _75
REMARK   34  A    between atoms: _75  and  _76
REMARK   35  A    between atoms: _79  and  _81
REMARK   36  A    between atoms: _81  and  _82
REMARK   37  A    between atoms: _81  and  _84
REMARK   38  A    between atoms: _84  and  _85
REMARK   39  A    between atoms: _88  and  _90
REMARK   40  A    between atoms: _90  and  _91
REMARK   41  A    between atoms: _90  and  _93
REMARK   42  A    between atoms: _93  and  _94
REMARK   43  A    between atoms: _94  and  _95
REMARK   44  A    between atoms: _97  and  _99
REMARK   45  A    between atoms: _99  and  _100
REMARK   46  A    between atoms: _99  and  _102
REMARK   47  A    between atoms: _102  and  _103
REMARK   48  A    between atoms: _103  and  _104
REMARK   49  A    between atoms: _104  and  _105
REMARK   50  A    between atoms: _105  and  _106
REMARK   51  A    between atoms: _111  and  _112
REMARK   52  A    between atoms: _117  and  _119
REMARK   53  A    between atoms: _119  and  _120
REMARK   54  A    between atoms: _122  and  _124
REMARK   55  A    between atoms: _124  and  _125
REMARK   56  A    between atoms: _124  and  _127
REMARK   57  A    between atoms: _127  and  _128
REMARK   58  A    between atoms: _130  and  _132
REMARK   59  A    between atoms: _132  and  _133
REMARK   60  A    between atoms: _132  and  _135
REMARK   61  A    between atoms: _135  and  _136
REMARK   62  A    between atoms: _139  and  _141
REMARK   63  A    between atoms: _141  and  _142
REMARK   64  A    between atoms: _141  and  _144
REMARK   65  A    between atoms: _144  and  _145
REMARK   66  A    between atoms: _145  and  _146
REMARK   67  A    between atoms: _146  and  _147
REMARK   68  A    between atoms: _156  and  _158
REMARK   69  A    between atoms: _158  and  _159
REMARK   70  A    between atoms: _158  and  _161
REMARK   71  A    between atoms: _161  and  _162
REMARK   72  A    between atoms: _162  and  _163
REMARK   73  A    between atoms: _163  and  _164
REMARK   74  A    between atoms: _173  and  _175
REMARK   75  A    between atoms: _175  and  _176
REMARK   76  A    between atoms: _179  and  _181
REMARK   77  A    between atoms: _181  and  _182
REMARK   78  A    between atoms: _181  and  _184
REMARK   79  A    between atoms: _184  and  _185
REMARK   80  A    between atoms: _188  and  _190
REMARK   81  A    between atoms: _190  and  _191
REMARK   82  A    between atoms: _190  and  _193
REMARK   83  A    between atoms: _193  and  _194
REMARK   84  A    between atoms: _194  and  _195
REMARK   85  A    between atoms: _198  and  _200
REMARK   86  A    between atoms: _200  and  _201
REMARK   87  A    between atoms: _200  and  _203
REMARK   88  A    between atoms: _203  and  _204
REMARK   89  A    between atoms: _206  and  _208
REMARK   90  A    between atoms: _208  and  _209
REMARK   91  A    between atoms: _208  and  _211
REMARK   92  A    between atoms: _211  and  _212
REMARK   93  A    between atoms: _214  and  _216
REMARK   94  A    between atoms: _216  and  _217
REMARK   95  A    between atoms: _216  and  _219
REMARK   96  A    between atoms: _219  and  _220
REMARK   97  A    between atoms: _225  and  _227
REMARK   98  A    between atoms: _227  and  _228
REMARK   99  A    between atoms: _227  and  _230
REMARK  100  A    between atoms: _230  and  _231
REMARK  101  A    between atoms: _234  and  _236
REMARK  102  A    between atoms: _236  and  _237
REMARK  103  A    between atoms: _236  and  _239
REMARK  104  A    between atoms: _239  and  _240
REMARK  105  A    between atoms: _245  and  _247
REMARK  106  A    between atoms: _247  and  _248
REMARK  107  A    between atoms: _247  and  _250
REMARK  108  A    between atoms: _250  and  _251
REMARK  109  A    between atoms: _257  and  _259
REMARK  110  A    between atoms: _259  and  _260
REMARK  111  A    between atoms: _259  and  _262
REMARK  112  A    between atoms: _262  and  _263
REMARK  113  A    between atoms: _263  and  _264
REMARK  114  A    between atoms: _269  and  _271
REMARK  115  A    between atoms: _271  and  _272
REMARK  116  A    between atoms: _271  and  _274
REMARK  117  A    between atoms: _274  and  _275
REMARK  118  A    between atoms: _277  and  _279
REMARK  119  A    between atoms: _279  and  _280
REMARK  120  A    between atoms: _279  and  _282
REMARK  121  A    between atoms: _282  and  _283
REMARK  122  A    between atoms: _285  and  _287
REMARK  123  A    between atoms: _287  and  _288
REMARK  124  A    between atoms: _287  and  _290
REMARK  125  A    between atoms: _290  and  _291
REMARK  126  A    between atoms: _294  and  _296
REMARK  127  A    between atoms: _296  and  _297
REMARK  128  A    between atoms: _296  and  _299
REMARK  129  A    between atoms: _299  and  _300
REMARK  130  A    between atoms: _305  and  _306
REMARK  131  A    between atoms: _308  and  _310
REMARK  132  A    between atoms: _310  and  _311
REMARK  133  A    between atoms: _310  and  _313
REMARK  134  A    between atoms: _313  and  _314
REMARK  135  A    between atoms: _317  and  _319
REMARK  136  A    between atoms: _319  and  _320
REMARK  137  A    between atoms: _319  and  _322
REMARK  138  A    between atoms: _322  and  _323
REMARK  139  A    between atoms: _328  and  _330
REMARK  140  A    between atoms: _330  and  _331
REMARK  141  A    between atoms: _330  and  _333
REMARK  142  A    between atoms: _333  and  _334
REMARK  143  A    between atoms: _337  and  _339
REMARK  144  A    between atoms: _339  and  _340
REMARK  145  A    between atoms: _339  and  _342
REMARK  146  A    between atoms: _342  and  _343
REMARK  147  A    between atoms: _343  and  _344
REMARK  148  A    between atoms: _347  and  _349
REMARK  149  A    between atoms: _349  and  _350
REMARK  150  A    between atoms: _349  and  _352
REMARK  151  A    between atoms: _352  and  _353
REMARK  152  A    between atoms: _356  and  _358
REMARK  153  A    between atoms: _358  and  _359
REMARK  154  A    between atoms: _362  and  _364
REMARK  155  A    between atoms: _364  and  _365
REMARK  156  A    between atoms: _364  and  _367
REMARK  157  A    between atoms: _367  and  _368
REMARK  158  A    between atoms: _368  and  _369
REMARK  159  A    between atoms: _369  and  _370
REMARK  160  A    between atoms: _370  and  _371
REMARK  161  A    between atoms: _375  and  _377
REMARK  162  A    between atoms: _377  and  _378
REMARK  163  A    between atoms: _377  and  _380
REMARK  164  A    between atoms: _380  and  _381
REMARK  165  A    between atoms: _381  and  _382
REMARK  166  A    between atoms: _387  and  _389
REMARK  167  A    between atoms: _389  and  _390
REMARK  168  A    between atoms: _389  and  _392
REMARK  169  A    between atoms: _392  and  _393
REMARK  170  A    between atoms: _393  and  _394
REMARK  171  A    between atoms: _397  and  _399
REMARK  172  A    between atoms: _399  and  _400
REMARK  173  A    between atoms: _399  and  _402
REMARK  174  A    between atoms: _402  and  _403
REMARK  175  A    between atoms: _406  and  _408
REMARK  176  A    between atoms: _408  and  _409
REMARK  177  A    between atoms: _408  and  _411
REMARK  178  A    between atoms: _411  and  _412
REMARK  179  A    between atoms: _415  and  _417
REMARK  180  A    between atoms: _417  and  _418
REMARK  181  A    between atoms: _417  and  _420
REMARK  182  A    between atoms: _420  and  _421
REMARK  183  A    between atoms: _424  and  _426
REMARK  184  A    between atoms: _426  and  _427
REMARK  185  A    between atoms: _426  and  _429
REMARK  186  A    between atoms: _429  and  _430
REMARK  187  A    between atoms: _433  and  _435
REMARK  188  A    between atoms: _435  and  _436
REMARK  189  A    between atoms: _435  and  _438
REMARK  190  A    between atoms: _438  and  _439
REMARK  191  A    between atoms: _439  and  _440
REMARK  192  A    between atoms: _440  and  _441
REMARK  193  A    between atoms: _441  and  _442
REMARK  194  A    between atoms: _446  and  _448
REMARK  195  A    between atoms: _448  and  _449
REMARK  196  A    between atoms: _448  and  _451
REMARK  197  A    between atoms: _451  and  _452
REMARK  198  A    between atoms: _452  and  _453
REMARK  199  A    between atoms: _453  and  _454
REMARK  200  A    between atoms: _463  and  _465
REMARK  201  A    between atoms: _465  and  _466
REMARK  202  A    between atoms: _465  and  _468
REMARK  203  A    between atoms: _468  and  _469
REMARK  204  A    between atoms: _472  and  _474
REMARK  205  A    between atoms: _474  and  _475
REMARK  206  A    between atoms: _474  and  _477
REMARK  207  A    between atoms: _477  and  _478
REMARK  208  A    between atoms: _481  and  _483
REMARK  209  A    between atoms: _483  and  _484
REMARK  210  A    between atoms: _483  and  _486
REMARK  211  A    between atoms: _486  and  _487
REMARK  212  A    between atoms: _493  and  _495
REMARK  213  A    between atoms: _495  and  _496
REMARK  214  A    between atoms: _495  and  _498
REMARK  215  A    between atoms: _498  and  _499
REMARK  216  A    between atoms: _499  and  _500
REMARK  217  A    between atoms: _503  and  _505
REMARK  218  A    between atoms: _505  and  _506
REMARK  219  A    between atoms: _505  and  _508
REMARK  220  A    between atoms: _508  and  _509
REMARK  221  A    between atoms: _514  and  _516
REMARK  222  A    between atoms: _516  and  _517
REMARK  223  A    between atoms: _520  and  _522
REMARK  224  A    between atoms: _522  and  _523
REMARK  225  A    between atoms: _522  and  _525
REMARK  226  A    between atoms: _525  and  _526
REMARK  227  A    between atoms: _526  and  _527
REMARK  228  A    between atoms: _527  and  _528
REMARK  229  A    between atoms: _528  and  _529
REMARK  230  A    between atoms: _533  and  _535
REMARK  231  A    between atoms: _535  and  _536
REMARK  232  A    between atoms: _535  and  _538
REMARK  233  A    between atoms: _538  and  _539
REMARK  234  A    between atoms: _541  and  _543
REMARK  235  A    between atoms: _543  and  _544
REMARK  236  A    between atoms: _543  and  _546
REMARK  237  A    between atoms: _549  and  _551
REMARK  238  A    between atoms: _551  and  _552
REMARK  239  A    between atoms: _551  and  _554
REMARK  240  A    between atoms: _554  and  _555
REMARK  241  A    between atoms: _560  and  _561
REMARK  242  A    between atoms: _563  and  _565
REMARK  243  A    between atoms: _565  and  _566
REMARK  244  A    between atoms: _565  and  _568
REMARK  245  A    between atoms: _568  and  _569
REMARK  246  A    between atoms: _574  and  _575
REMARK  247  A    between atoms: _577  and  _579
REMARK  248  A    between atoms: _579  and  _580
REMARK  249  A    between atoms: _579  and  _582
REMARK  250  A    between atoms: _582  and  _583
REMARK  251  A    between atoms: _589  and  _591
REMARK  252  A    between atoms: _591  and  _592
REMARK  253  A    between atoms: _591  and  _594
REMARK  254  A    between atoms: _594  and  _595
REMARK  255  A    between atoms: _595  and  _596
REMARK  256  A    between atoms: _598  and  _600
REMARK  257  A    between atoms: _600  and  _601
REMARK  258  A    between atoms: _600  and  _603
REMARK  259  A    between atoms: _603  and  _604
REMARK  260  A    between atoms: _604  and  _605
REMARK  261  A    between atoms: _605  and  _606
REMARK                            x       y       z     vdW  Elec       q    Type
REMARK                         _______ _______ _______ _____ _____    ______ ____
ROOT
ATOM      1  O   HOH     1     -45.919  -7.725  21.540  0.00  0.00    +0.000 OA
ENDROOT
TORSDOF 0
REMARK  Name = ../refined-set-2016/4u0w/4u0w_pocket.pdb
REMARK  261 active torsions:
REMARK  status: ('A' for Active; 'I' for Inactive)
REMARK    1  A    between atoms: _1  and  _3
REMARK    2  A    between atoms: _3  and  _4
REMARK    3  A    between atoms: _3  and  _6
REMARK    4  A    between atoms: _6  and  _7
REMARK    5  A    between atoms: _7  and  _8
REMARK    6  A    between atoms: _13  and  _15
REMARK    7  A    between atoms: _15  and  _16
REMARK    8  A    between atoms: _15  and  _18
REMARK    9  A    between atoms: _18  and  _19
REMARK   10  A    between atoms: _22  and  _24
REMARK   11  A    between atoms: _24  and  _25
REMARK   12  A    between atoms: _24  and  _27
REMARK   13  A    between atoms: _27  and  _28
REMARK   14  A    between atoms: _31  and  _33
REMARK   15  A    between atoms: _33  and  _34
REMARK   16  A    between atoms: _33  and  _36
REMARK   17  A    between atoms: _36  and  _37
REMARK   18  A    between atoms: _40  and  _42
REMARK   19  A    between atoms: _42  and  _43
REMARK   20  A    between atoms: _42  and  _45
REMARK   21  A    between atoms: _45  and  _46
REMARK   22  A    between atoms: _48  and  _50
REMARK   23  A    between atoms: _50  and  _51
REMARK   24  A    between atoms: _50  and  _53
REMARK   25  A    between atoms: _53  and  _54
REMARK   26  A    between atoms: _60  and  _62
REMARK   27  A    between atoms: _62  and  _63
REMARK   28  A    between atoms: _62  and  _65
REMARK   29  A    between atoms: _65  and  _66
REMARK   30  A    between atoms: _69  and  _71
REMARK   31  A    between atoms: _71  and  _72
REMARK   32  A    between atoms: _71  and  _74
REMARK   33  A    between atoms: _74  and  _75
REMARK   34  A    between atoms: _75  and  _76
REMARK   35  A    between atoms: _79  and  _81
REMARK   36  A    between atoms: _81  and  _82
REMARK   37  A    between atoms: _81  and  _84
REMARK   38  A    between atoms: _84  and  _85
REMARK   39  A    between atoms: _88  and  _90
REMARK   40  A    between atoms: _90  and  _91
REMARK   41  A    between atoms: _90  and  _93
REMARK   42  A    between atoms: _93  and  _94
REMARK   43  A    between atoms: _94  and  _95
REMARK   44  A    between atoms: _97  and  _99
REMARK   45  A    between atoms: _99  and  _100
REMARK   46  A    between atoms: _99  and  _102
REMARK   47  A    between atoms: _102  and  _103
REMARK   48  A    between atoms: _103  and  _104
REMARK   49  A    between atoms: _104  and  _105
REMARK   50  A    between atoms: _105  and  _106
REMARK   51  A    between atoms: _111  and  _112
REMARK   52  A    between atoms: _117  and  _119
REMARK   53  A    between atoms: _119  and  _120
REMARK   54  A    between atoms: _122  and  _124
REMARK   55  A    between atoms: _124  and  _125
REMARK   56  A    between atoms: _124  and  _127
REMARK   57  A    between atoms: _127  and  _128
REMARK   58  A    between atoms: _130  and  _132
REMARK   59  A    between atoms: _132  and  _133
REMARK   60  A    between atoms: _132  and  _135
REMARK   61  A    between atoms: _135  and  _136
REMARK   62  A    between atoms: _139  and  _141
REMARK   63  A    between atoms: _141  and  _142
REMARK   64  A    between atoms: _141  and  _144
REMARK   65  A    between atoms: _144  and  _145
REMARK   66  A    between atoms: _145  and  _146
REMARK   67  A    between atoms: _146  and  _147
REMARK   68  A    between atoms: _156  and  _158
REMARK   69  A    between atoms: _158  and  _159
REMARK   70  A    between atoms: _158  and  _161
REMARK   71  A    between atoms: _161  and  _162
REMARK   72  A    between atoms: _162  and  _163
REMARK   73  A    between atoms: _163  and  _164
REMARK   74  A    between atoms: _173  and  _175
REMARK   75  A    between atoms: _175  and  _176
REMARK   76  A    between atoms: _179  and  _181
REMARK   77  A    between atoms: _181  and  _182
REMARK   78  A    between atoms: _181  and  _184
REMARK   79  A    between atoms: _184  and  _185
REMARK   80  A    between atoms: _188  and  _190
REMARK   81  A    between atoms: _190  and  _191
REMARK   82  A    between atoms: _190  and  _193
REMARK   83  A    between atoms: _193  and  _194
REMARK   84  A    between atoms: _194  and  _195
REMARK   85  A    between atoms: _198  and  _200
REMARK   86  A    between atoms: _200  and  _201
REMARK   87  A    between atoms: _200  and  _203
REMARK   88  A    between atoms: _203  and  _204
REMARK   89  A    between atoms: _206  and  _208
REMARK   90  A    between atoms: _208  and  _209
REMARK   91  A    between atoms: _208  and  _211
REMARK   92  A    between atoms: _211  and  _212
REMARK   93  A    between atoms: _214  and  _216
REMARK   94  A    between atoms: _216  and  _217
REMARK   95  A    between atoms: _216  and  _219
REMARK   96  A    between atoms: _219  and  _220
REMARK   97  A    between atoms: _225  and  _227
REMARK   98  A    between atoms: _227  and  _228
REMARK   99  A    between atoms: _227  and  _230
REMARK  100  A    between atoms: _230  and  _231
REMARK  101  A    between atoms: _234  and  _236
REMARK  102  A    between atoms: _236  and  _237
REMARK  103  A    between atoms: _236  and  _239
REMARK  104  A    between atoms: _239  and  _240
REMARK  105  A    between atoms: _245  and  _247
REMARK  106  A    between atoms: _247  and  _248
REMARK  107  A    between atoms: _247  and  _250
REMARK  108  A    between atoms: _250  and  _251
REMARK  109  A    between atoms: _257  and  _259
REMARK  110  A    between atoms: _259  and  _260
REMARK  111  A    between atoms: _259  and  _262
REMARK  112  A    between atoms: _262  and  _263
REMARK  113  A    between atoms: _263  and  _264
REMARK  114  A    between atoms: _269  and  _271
REMARK  115  A    between atoms: _271  and  _272
REMARK  116  A    between atoms: _271  and  _274
REMARK  117  A    between atoms: _274  and  _275
REMARK  118  A    between atoms: _277  and  _279
REMARK  119  A    between atoms: _279  and  _280
REMARK  120  A    between atoms: _279  and  _282
REMARK  121  A    between atoms: _282  and  _283
REMARK  122  A    between atoms: _285  and  _287
REMARK  123  A    between atoms: _287  and  _288
REMARK  124  A    between atoms: _287  and  _290
REMARK  125  A    between atoms: _290  and  _291
REMARK  126  A    between atoms: _294  and  _296
REMARK  127  A    between atoms: _296  and  _297
REMARK  128  A    between atoms: _296  and  _299
REMARK  129  A    between atoms: _299  and  _300
REMARK  130  A    between atoms: _305  and  _306
REMARK  131  A    between atoms: _308  and  _310
REMARK  132  A    between atoms: _310  and  _311
REMARK  133  A    between atoms: _310  and  _313
REMARK  134  A    between atoms: _313  and  _314
REMARK  135  A    between atoms: _317  and  _319
REMARK  136  A    between atoms: _319  and  _320
REMARK  137  A    between atoms: _319  and  _322
REMARK  138  A    between atoms: _322  and  _323
REMARK  139  A    between atoms: _328  and  _330
REMARK  140  A    between atoms: _330  and  _331
REMARK  141  A    between atoms: _330  and  _333
REMARK  142  A    between atoms: _333  and  _334
REMARK  143  A    between atoms: _337  and  _339
REMARK  144  A    between atoms: _339  and  _340
REMARK  145  A    between atoms: _339  and  _342
REMARK  146  A    between atoms: _342  and  _343
REMARK  147  A    between atoms: _343  and  _344
REMARK  148  A    between atoms: _347  and  _349
REMARK  149  A    between atoms: _349  and  _350
REMARK  150  A    between atoms: _349  and  _352
REMARK  151  A    between atoms: _352  and  _353
REMARK  152  A    between atoms: _356  and  _358
REMARK  153  A    between atoms: _358  and  _359
REMARK  154  A    between atoms: _362  and  _364
REMARK  155  A    between atoms: _364  and  _365
REMARK  156  A    between atoms: _364  and  _367
REMARK  157  A    between atoms: _367  and  _368
REMARK  158  A    between atoms: _368  and  _369
REMARK  159  A    between atoms: _369  and  _370
REMARK  160  A    between atoms: _370  and  _371
REMARK  161  A    between atoms: _375  and  _377
REMARK  162  A    between atoms: _377  and  _378
REMARK  163  A    between atoms: _377  and  _380
REMARK  164  A    between atoms: _380  and  _381
REMARK  165  A    between atoms: _381  and  _382
REMARK  166  A    between atoms: _387  and  _389
REMARK  167  A    between atoms: _389  and  _390
REMARK  168  A    between atoms: _389  and  _392
REMARK  169  A    between atoms: _392  and  _393
REMARK  170  A    between atoms: _393  and  _394
REMARK  171  A    between atoms: _397  and  _399
REMARK  172  A    between atoms: _399  and  _400
REMARK  173  A    between atoms: _399  and  _402
REMARK  174  A    between atoms: _402  and  _403
REMARK  175  A    between atoms: _406  and  _408
REMARK  176  A    between atoms: _408  and  _409
REMARK  177  A    between atoms: _408  and  _411
REMARK  178  A    between atoms: _411  and  _412
REMARK  179  A    between atoms: _415  and  _417
REMARK  180  A    between atoms: _417  and  _418
REMARK  181  A    between atoms: _417  and  _420
REMARK  182  A    between atoms: _420  and  _421
REMARK  183  A    between atoms: _424  and  _426
REMARK  184  A    between atoms: _426  and  _427
REMARK  185  A    between atoms: _426  and  _429
REMARK  186  A    between atoms: _429  and  _430
REMARK  187  A    between atoms: _433  and  _435
REMARK  188  A    between atoms: _435  and  _436
REMARK  189  A    between atoms: _435  and  _438
REMARK  190  A    between atoms: _438  and  _439
REMARK  191  A    between atoms: _439  and  _440
REMARK  192  A    between atoms: _440  and  _441
REMARK  193  A    between atoms: _441  and  _442
REMARK  194  A    between atoms: _446  and  _448
REMARK  195  A    between atoms: _448  and  _449
REMARK  196  A    between atoms: _448  and  _451
REMARK  197  A    between atoms: _451  and  _452
REMARK  198  A    between atoms: _452  and  _453
REMARK  199  A    between atoms: _453  and  _454
REMARK  200  A    between atoms: _463  and  _465
REMARK  201  A    between atoms: _465  and  _466
REMARK  202  A    between atoms: _465  and  _468
REMARK  203  A    between atoms: _468  and  _469
REMARK  204  A    between atoms: _472  and  _474
REMARK  205  A    between atoms: _474  and  _475
REMARK  206  A    between atoms: _474  and  _477
REMARK  207  A    between atoms: _477  and  _478
REMARK  208  A    between atoms: _481  and  _483
REMARK  209  A    between atoms: _483  and  _484
REMARK  210  A    between atoms: _483  and  _486
REMARK  211  A    between atoms: _486  and  _487
REMARK  212  A    between atoms: _493  and  _495
REMARK  213  A    between atoms: _495  and  _496
REMARK  214  A    between atoms: _495  and  _498
REMARK  215  A    between atoms: _498  and  _499
REMARK  216  A    between atoms: _499  and  _500
REMARK  217  A    between atoms: _503  and  _505
REMARK  218  A    between atoms: _505  and  _506
REMARK  219  A    between atoms: _505  and  _508
REMARK  220  A    between atoms: _508  and  _509
REMARK  221  A    between atoms: _514  and  _516
REMARK  222  A    between atoms: _516  and  _517
REMARK  223  A    between atoms: _520  and  _522
REMARK  224  A    between atoms: _522  and  _523
REMARK  225  A    between atoms: _522  and  _525
REMARK  226  A    between atoms: _525  and  _526
REMARK  227  A    between atoms: _526  and  _527
REMARK  228  A    between atoms: _527  and  _528
REMARK  229  A    between atoms: _528  and  _529
REMARK  230  A    between atoms: _533  and  _535
REMARK  231  A    between atoms: _535  and  _536
REMARK  232  A    between atoms: _535  and  _538
REMARK  233  A    between atoms: _538  and  _539
REMARK  234  A    between atoms: _541  and  _543
REMARK  235  A    between atoms: _543  and  _544
REMARK  236  A    between atoms: _543  and  _546
REMARK  237  A    between atoms: _549  and  _551
REMARK  238  A    between atoms: _551  and  _552
REMARK  239  A    between atoms: _551  and  _554
REMARK  240  A    between atoms: _554  and  _555
REMARK  241  A    between atoms: _560  and  _561
REMARK  242  A    between atoms: _563  and  _565
REMARK  243  A    between atoms: _565  and  _566
REMARK  244  A    between atoms: _565  and  _568
REMARK  245  A    between atoms: _568  and  _569
REMARK  246  A    between atoms: _574  and  _575
REMARK  247  A    between atoms: _577  and  _579
REMARK  248  A    between atoms: _579  and  _580
REMARK  249  A    between atoms: _579  and  _582
REMARK  250  A    between atoms: _582  and  _583
REMARK  251  A    between atoms: _589  and  _591
REMARK  252  A    between atoms: _591  and  _592
REMARK  253  A    between atoms: _591  and  _594
REMARK  254  A    between atoms: _594  and  _595
REMARK  255  A    between atoms: _595  and  _596
REMARK  256  A    between atoms: _598  and  _600
REMARK  257  A    between atoms: _600  and  _601
REMARK  258  A    between atoms: _600  and  _603
REMARK  259  A    between atoms: _603  and  _604
REMARK  260  A    between atoms: _604  and  _605
REMARK  261  A    between atoms: _605  and  _606
REMARK                            x       y       z     vdW  Elec       q    Type
REMARK                         _______ _______ _______ _____ _____    ______ ____
ROOT
ATOM      1  O   HOH     1     -44.502 -16.517  26.846  0.00  0.00    +0.000 OA
ENDROOT
TORSDOF 0
REMARK  Name = ../refined-set-2016/4u0w/4u0w_pocket.pdb
REMARK  261 active torsions:
REMARK  status: ('A' for Active; 'I' for Inactive)
REMARK    1  A    between atoms: _1  and  _3
REMARK    2  A    between atoms: _3  and  _4
REMARK    3  A    between atoms: _3  and  _6
REMARK    4  A    between atoms: _6  and  _7
REMARK    5  A    between atoms: _7  and  _8
REMARK    6  A    between atoms: _13  and  _15
REMARK    7  A    between atoms: _15  and  _16
REMARK    8  A    between atoms: _15  and  _18
REMARK    9  A    between atoms: _18  and  _19
REMARK   10  A    between atoms: _22  and  _24
REMARK   11  A    between atoms: _24  and  _25
REMARK   12  A    between atoms: _24  and  _27
REMARK   13  A    between atoms: _27  and  _28
REMARK   14  A    between atoms: _31  and  _33
REMARK   15  A    between atoms: _33  and  _34
REMARK   16  A    between atoms: _33  and  _36
REMARK   17  A    between atoms: _36  and  _37
REMARK   18  A    between atoms: _40  and  _42
REMARK   19  A    between atoms: _42  and  _43
REMARK   20  A    between atoms: _42  and  _45
REMARK   21  A    between atoms: _45  and  _46
REMARK   22  A    between atoms: _48  and  _50
REMARK   23  A    between atoms: _50  and  _51
REMARK   24  A    between atoms: _50  and  _53
REMARK   25  A    between atoms: _53  and  _54
REMARK   26  A    between atoms: _60  and  _62
REMARK   27  A    between atoms: _62  and  _63
REMARK   28  A    between atoms: _62  and  _65
REMARK   29  A    between atoms: _65  and  _66
REMARK   30  A    between atoms: _69  and  _71
REMARK   31  A    between atoms: _71  and  _72
REMARK   32  A    between atoms: _71  and  _74
REMARK   33  A    between atoms: _74  and  _75
REMARK   34  A    between atoms: _75  and  _76
REMARK   35  A    between atoms: _79  and  _81
REMARK   36  A    between atoms: _81  and  _82
REMARK   37  A    between atoms: _81  and  _84
REMARK   38  A    between atoms: _84  and  _85
REMARK   39  A    between atoms: _88  and  _90
REMARK   40  A    between atoms: _90  and  _91
REMARK   41  A    between atoms: _90  and  _93
REMARK   42  A    between atoms: _93  and  _94
REMARK   43  A    between atoms: _94  and  _95
REMARK   44  A    between atoms: _97  and  _99
REMARK   45  A    between atoms: _99  and  _100
REMARK   46  A    between atoms: _99  and  _102
REMARK   47  A    between atoms: _102  and  _103
REMARK   48  A    between atoms: _103  and  _104
REMARK   49  A    between atoms: _104  and  _105
REMARK   50  A    between atoms: _105  and  _106
REMARK   51  A    between atoms: _111  and  _112
REMARK   52  A    between atoms: _117  and  _119
REMARK   53  A    between atoms: _119  and  _120
REMARK   54  A    between atoms: _122  and  _124
REMARK   55  A    between atoms: _124  and  _125
REMARK   56  A    between atoms: _124  and  _127
REMARK   57  A    between atoms: _127  and  _128
REMARK   58  A    between atoms: _130  and  _132
REMARK   59  A    between atoms: _132  and  _133
REMARK   60  A    between atoms: _132  and  _135
REMARK   61  A    between atoms: _135  and  _136
REMARK   62  A    between atoms: _139  and  _141
REMARK   63  A    between atoms: _141  and  _142
REMARK   64  A    between atoms: _141  and  _144
REMARK   65  A    between atoms: _144  and  _145
REMARK   66  A    between atoms: _145  and  _146
REMARK   67  A    between atoms: _146  and  _147
REMARK   68  A    between atoms: _156  and  _158
REMARK   69  A    between atoms: _158  and  _159
REMARK   70  A    between atoms: _158  and  _161
REMARK   71  A    between atoms: _161  and  _162
REMARK   72  A    between atoms: _162  and  _163
REMARK   73  A    between atoms: _163  and  _164
REMARK   74  A    between atoms: _173  and  _175
REMARK   75  A    between atoms: _175  and  _176
REMARK   76  A    between atoms: _179  and  _181
REMARK   77  A    between atoms: _181  and  _182
REMARK   78  A    between atoms: _181  and  _184
REMARK   79  A    between atoms: _184  and  _185
REMARK   80  A    between atoms: _188  and  _190
REMARK   81  A    between atoms: _190  and  _191
REMARK   82  A    between atoms: _190  and  _193
REMARK   83  A    between atoms: _193  and  _194
REMARK   84  A    between atoms: _194  and  _195
REMARK   85  A    between atoms: _198  and  _200
REMARK   86  A    between atoms: _200  and  _201
REMARK   87  A    between atoms: _200  and  _203
REMARK   88  A    between atoms: _203  and  _204
REMARK   89  A    between atoms: _206  and  _208
REMARK   90  A    between atoms: _208  and  _209
REMARK   91  A    between atoms: _208  and  _211
REMARK   92  A    between atoms: _211  and  _212
REMARK   93  A    between atoms: _214  and  _216
REMARK   94  A    between atoms: _216  and  _217
REMARK   95  A    between atoms: _216  and  _219
REMARK   96  A    between atoms: _219  and  _220
REMARK   97  A    between atoms: _225  and  _227
REMARK   98  A    between atoms: _227  and  _228
REMARK   99  A    between atoms: _227  and  _230
REMARK  100  A    between atoms: _230  and  _231
REMARK  101  A    between atoms: _234  and  _236
REMARK  102  A    between atoms: _236  and  _237
REMARK  103  A    between atoms: _236  and  _239
REMARK  104  A    between atoms: _239  and  _240
REMARK  105  A    between atoms: _245  and  _247
REMARK  106  A    between atoms: _247  and  _248
REMARK  107  A    between atoms: _247  and  _250
REMARK  108  A    between atoms: _250  and  _251
REMARK  109  A    between atoms: _257  and  _259
REMARK  110  A    between atoms: _259  and  _260
REMARK  111  A    between atoms: _259  and  _262
REMARK  112  A    between atoms: _262  and  _263
REMARK  113  A    between atoms: _263  and  _264
REMARK  114  A    between atoms: _269  and  _271
REMARK  115  A    between atoms: _271  and  _272
REMARK  116  A    between atoms: _271  and  _274
REMARK  117  A    between atoms: _274  and  _275
REMARK  118  A    between atoms: _277  and  _279
REMARK  119  A    between atoms: _279  and  _280
REMARK  120  A    between atoms: _279  and  _282
REMARK  121  A    between atoms: _282  and  _283
REMARK  122  A    between atoms: _285  and  _287
REMARK  123  A    between atoms: _287  and  _288
REMARK  124  A    between atoms: _287  and  _290
REMARK  125  A    between atoms: _290  and  _291
REMARK  126  A    between atoms: _294  and  _296
REMARK  127  A    between atoms: _296  and  _297
REMARK  128  A    between atoms: _296  and  _299
REMARK  129  A    between atoms: _299  and  _300
REMARK  130  A    between atoms: _305  and  _306
REMARK  131  A    between atoms: _308  and  _310
REMARK  132  A    between atoms: _310  and  _311
REMARK  133  A    between atoms: _310  and  _313
REMARK  134  A    between atoms: _313  and  _314
REMARK  135  A    between atoms: _317  and  _319
REMARK  136  A    between atoms: _319  and  _320
REMARK  137  A    between atoms: _319  and  _322
REMARK  138  A    between atoms: _322  and  _323
REMARK  139  A    between atoms: _328  and  _330
REMARK  140  A    between atoms: _330  and  _331
REMARK  141  A    between atoms: _330  and  _333
REMARK  142  A    between atoms: _333  and  _334
REMARK  143  A    between atoms: _337  and  _339
REMARK  144  A    between atoms: _339  and  _340
REMARK  145  A    between atoms: _339  and  _342
REMARK  146  A    between atoms: _342  and  _343
REMARK  147  A    between atoms: _343  and  _344
REMARK  148  A    between atoms: _347  and  _349
REMARK  149  A    between atoms: _349  and  _350
REMARK  150  A    between atoms: _349  and  _352
REMARK  151  A    between atoms: _352  and  _353
REMARK  152  A    between atoms: _356  and  _358
REMARK  153  A    between atoms: _358  and  _359
REMARK  154  A    between atoms: _362  and  _364
REMARK  155  A    between atoms: _364  and  _365
REMARK  156  A    between atoms: _364  and  _367
REMARK  157  A    between atoms: _367  and  _368
REMARK  158  A    between atoms: _368  and  _369
REMARK  159  A    between atoms: _369  and  _370
REMARK  160  A    between atoms: _370  and  _371
REMARK  161  A    between atoms: _375  and  _377
REMARK  162  A    between atoms: _377  and  _378
REMARK  163  A    between atoms: _377  and  _380
REMARK  164  A    between atoms: _380  and  _381
REMARK  165  A    between atoms: _381  and  _382
REMARK  166  A    between atoms: _387  and  _389
REMARK  167  A    between atoms: _389  and  _390
REMARK  168  A    between atoms: _389  and  _392
REMARK  169  A    between atoms: _392  and  _393
REMARK  170  A    between atoms: _393  and  _394
REMARK  171  A    between atoms: _397  and  _399
REMARK  172  A    between atoms: _399  and  _400
REMARK  173  A    between atoms: _399  and  _402
REMARK  174  A    between atoms: _402  and  _403
REMARK  175  A    between atoms: _406  and  _408
REMARK  176  A    between atoms: _408  and  _409
REMARK  177  A    between atoms: _408  and  _411
REMARK  178  A    between atoms: _411  and  _412
REMARK  179  A    between atoms: _415  and  _417
REMARK  180  A    between atoms: _417  and  _418
REMARK  181  A    between atoms: _417  and  _420
REMARK  182  A    between atoms: _420  and  _421
REMARK  183  A    between atoms: _424  and  _426
REMARK  184  A    between atoms: _426  and  _427
REMARK  185  A    between atoms: _426  and  _429
REMARK  186  A    between atoms: _429  and  _430
REMARK  187  A    between atoms: _433  and  _435
REMARK  188  A    between atoms: _435  and  _436
REMARK  189  A    between atoms: _435  and  _438
REMARK  190  A    between atoms: _438  and  _439
REMARK  191  A    between atoms: _439  and  _440
REMARK  192  A    between atoms: _440  and  _441
REMARK  193  A    between atoms: _441  and  _442
REMARK  194  A    between atoms: _446  and  _448
REMARK  195  A    between atoms: _448  and  _449
REMARK  196  A    between atoms: _448  and  _451
REMARK  197  A    between atoms: _451  and  _452
REMARK  198  A    between atoms: _452  and  _453
REMARK  199  A    between atoms: _453  and  _454
REMARK  200  A    between atoms: _463  and  _465
REMARK  201  A    between atoms: _465  and  _466
REMARK  202  A    between atoms: _465  and  _468
REMARK  203  A    between atoms: _468  and  _469
REMARK  204  A    between atoms: _472  and  _474
REMARK  205  A    between atoms: _474  and  _475
REMARK  206  A    between atoms: _474  and  _477
REMARK  207  A    between atoms: _477  and  _478
REMARK  208  A    between atoms: _481  and  _483
REMARK  209  A    between atoms: _483  and  _484
REMARK  210  A    between atoms: _483  and  _486
REMARK  211  A    between atoms: _486  and  _487
REMARK  212  A    between atoms: _493  and  _495
REMARK  213  A    between atoms: _495  and  _496
REMARK  214  A    between atoms: _495  and  _498
REMARK  215  A    between atoms: _498  and  _499
REMARK  216  A    between atoms: _499  and  _500
REMARK  217  A    between atoms: _503  and  _505
REMARK  218  A    between atoms: _505  and  _506
REMARK  219  A    between atoms: _505  and  _508
REMARK  220  A    between atoms: _508  and  _509
REMARK  221  A    between atoms: _514  and  _516
REMARK  222  A    between atoms: _516  and  _517
REMARK  223  A    between atoms: _520  and  _522
REMARK  224  A    between atoms: _522  and  _523
REMARK  225  A    between atoms: _522  and  _525
REMARK  226  A    between atoms: _525  and  _526
REMARK  227  A    between atoms: _526  and  _527
REMARK  228  A    between atoms: _527  and  _528
REMARK  229  A    between atoms: _528  and  _529
REMARK  230  A    between atoms: _533  and  _535
REMARK  231  A    between atoms: _535  and  _536
REMARK  232  A    between atoms: _535  and  _538
REMARK  233  A    between atoms: _538  and  _539
REMARK  234  A    between atoms: _541  and  _543
REMARK  235  A    between atoms: _543  and  _544
REMARK  236  A    between atoms: _543  and  _546
REMARK  237  A    between atoms: _549  and  _551
REMARK  238  A    between atoms: _551  and  _552
REMARK  239  A    between atoms: _551  and  _554
REMARK  240  A    between atoms: _554  and  _555
REMARK  241  A    between atoms: _560  and  _561
REMARK  242  A    between atoms: _563  and  _565
REMARK  243  A    between atoms: _565  and  _566
REMARK  244  A    between atoms: _565  and  _568
REMARK  245  A    between atoms: _568  and  _569
REMARK  246  A    between atoms: _574  and  _575
REMARK  247  A    between atoms: _577  and  _579
REMARK  248  A    between atoms: _579  and  _580
REMARK  249  A    between atoms: _579  and  _582
REMARK  250  A    between atoms: _582  and  _583
REMARK  251  A    between atoms: _589  and  _591
REMARK  252  A    between atoms: _591  and  _592
REMARK  253  A    between atoms: _591  and  _594
REMARK  254  A    between atoms: _594  and  _595
REMARK  255  A    between atoms: _595  and  _596
REMARK  256  A    between atoms: _598  and  _600
REMARK  257  A    between atoms: _600  and  _601
REMARK  258  A    between atoms: _600  and  _603
REMARK  259  A    between atoms: _603  and  _604
REMARK  260  A    between atoms: _604  and  _605
REMARK  261  A    between atoms: _605  and  _606
REMARK                            x       y       z     vdW  Elec       q    Type
REMARK                         _______ _______ _______ _____ _____    ______ ____
ROOT
ATOM      1  O   HOH     1     -40.126  -3.561  21.529  0.00  0.00    +0.000 OA
ENDROOT
TORSDOF 0
REMARK  Name = ../refined-set-2016/4u0w/4u0w_pocket.pdb
REMARK  261 active torsions:
REMARK  status: ('A' for Active; 'I' for Inactive)
REMARK    1  A    between atoms: _1  and  _3
REMARK    2  A    between atoms: _3  and  _4
REMARK    3  A    between atoms: _3  and  _6
REMARK    4  A    between atoms: _6  and  _7
REMARK    5  A    between atoms: _7  and  _8
REMARK    6  A    between atoms: _13  and  _15
REMARK    7  A    between atoms: _15  and  _16
REMARK    8  A    between atoms: _15  and  _18
REMARK    9  A    between atoms: _18  and  _19
REMARK   10  A    between atoms: _22  and  _24
REMARK   11  A    between atoms: _24  and  _25
REMARK   12  A    between atoms: _24  and  _27
REMARK   13  A    between atoms: _27  and  _28
REMARK   14  A    between atoms: _31  and  _33
REMARK   15  A    between atoms: _33  and  _34
REMARK   16  A    between atoms: _33  and  _36
REMARK   17  A    between atoms: _36  and  _37
REMARK   18  A    between atoms: _40  and  _42
REMARK   19  A    between atoms: _42  and  _43
REMARK   20  A    between atoms: _42  and  _45
REMARK   21  A    between atoms: _45  and  _46
REMARK   22  A    between atoms: _48  and  _50
REMARK   23  A    between atoms: _50  and  _51
REMARK   24  A    between atoms: _50  and  _53
REMARK   25  A    between atoms: _53  and  _54
REMARK   26  A    between atoms: _60  and  _62
REMARK   27  A    between atoms: _62  and  _63
REMARK   28  A    between atoms: _62  and  _65
REMARK   29  A    between atoms: _65  and  _66
REMARK   30  A    between atoms: _69  and  _71
REMARK   31  A    between atoms: _71  and  _72
REMARK   32  A    between atoms: _71  and  _74
REMARK   33  A    between atoms: _74  and  _75
REMARK   34  A    between atoms: _75  and  _76
REMARK   35  A    between atoms: _79  and  _81
REMARK   36  A    between atoms: _81  and  _82
REMARK   37  A    between atoms: _81  and  _84
REMARK   38  A    between atoms: _84  and  _85
REMARK   39  A    between atoms: _88  and  _90
REMARK   40  A    between atoms: _90  and  _91
REMARK   41  A    between atoms: _90  and  _93
REMARK   42  A    between atoms: _93  and  _94
REMARK   43  A    between atoms: _94  and  _95
REMARK   44  A    between atoms: _97  and  _99
REMARK   45  A    between atoms: _99  and  _100
REMARK   46  A    between atoms: _99  and  _102
REMARK   47  A    between atoms: _102  and  _103
REMARK   48  A    between atoms: _103  and  _104
REMARK   49  A    between atoms: _104  and  _105
REMARK   50  A    between atoms: _105  and  _106
REMARK   51  A    between atoms: _111  and  _112
REMARK   52  A    between atoms: _117  and  _119
REMARK   53  A    between atoms: _119  and  _120
REMARK   54  A    between atoms: _122  and  _124
REMARK   55  A    between atoms: _124  and  _125
REMARK   56  A    between atoms: _124  and  _127
REMARK   57  A    between atoms: _127  and  _128
REMARK   58  A    between atoms: _130  and  _132
REMARK   59  A    between atoms: _132  and  _133
REMARK   60  A    between atoms: _132  and  _135
REMARK   61  A    between atoms: _135  and  _136
REMARK   62  A    between atoms: _139  and  _141
REMARK   63  A    between atoms: _141  and  _142
REMARK   64  A    between atoms: _141  and  _144
REMARK   65  A    between atoms: _144  and  _145
REMARK   66  A    between atoms: _145  and  _146
REMARK   67  A    between atoms: _146  and  _147
REMARK   68  A    between atoms: _156  and  _158
REMARK   69  A    between atoms: _158  and  _159
REMARK   70  A    between atoms: _158  and  _161
REMARK   71  A    between atoms: _161  and  _162
REMARK   72  A    between atoms: _162  and  _163
REMARK   73  A    between atoms: _163  and  _164
REMARK   74  A    between atoms: _173  and  _175
REMARK   75  A    between atoms: _175  and  _176
REMARK   76  A    between atoms: _179  and  _181
REMARK   77  A    between atoms: _181  and  _182
REMARK   78  A    between atoms: _181  and  _184
REMARK   79  A    between atoms: _184  and  _185
REMARK   80  A    between atoms: _188  and  _190
REMARK   81  A    between atoms: _190  and  _191
REMARK   82  A    between atoms: _190  and  _193
REMARK   83  A    between atoms: _193  and  _194
REMARK   84  A    between atoms: _194  and  _195
REMARK   85  A    between atoms: _198  and  _200
REMARK   86  A    between atoms: _200  and  _201
REMARK   87  A    between atoms: _200  and  _203
REMARK   88  A    between atoms: _203  and  _204
REMARK   89  A    between atoms: _206  and  _208
REMARK   90  A    between atoms: _208  and  _209
REMARK   91  A    between atoms: _208  and  _211
REMARK   92  A    between atoms: _211  and  _212
REMARK   93  A    between atoms: _214  and  _216
REMARK   94  A    between atoms: _216  and  _217
REMARK   95  A    between atoms: _216  and  _219
REMARK   96  A    between atoms: _219  and  _220
REMARK   97  A    between atoms: _225  and  _227
REMARK   98  A    between atoms: _227  and  _228
REMARK   99  A    between atoms: _227  and  _230
REMARK  100  A    between atoms: _230  and  _231
REMARK  101  A    between atoms: _234  and  _236
REMARK  102  A    between atoms: _236  and  _237
REMARK  103  A    between atoms: _236  and  _239
REMARK  104  A    between atoms: _239  and  _240
REMARK  105  A    between atoms: _245  and  _247
REMARK  106  A    between atoms: _247  and  _248
REMARK  107  A    between atoms: _247  and  _250
REMARK  108  A    between atoms: _250  and  _251
REMARK  109  A    between atoms: _257  and  _259
REMARK  110  A    between atoms: _259  and  _260
REMARK  111  A    between atoms: _259  and  _262
REMARK  112  A    between atoms: _262  and  _263
REMARK  113  A    between atoms: _263  and  _264
REMARK  114  A    between atoms: _269  and  _271
REMARK  115  A    between atoms: _271  and  _272
REMARK  116  A    between atoms: _271  and  _274
REMARK  117  A    between atoms: _274  and  _275
REMARK  118  A    between atoms: _277  and  _279
REMARK  119  A    between atoms: _279  and  _280
REMARK  120  A    between atoms: _279  and  _282
REMARK  121  A    between atoms: _282  and  _283
REMARK  122  A    between atoms: _285  and  _287
REMARK  123  A    between atoms: _287  and  _288
REMARK  124  A    between atoms: _287  and  _290
REMARK  125  A    between atoms: _290  and  _291
REMARK  126  A    between atoms: _294  and  _296
REMARK  127  A    between atoms: _296  and  _297
REMARK  128  A    between atoms: _296  and  _299
REMARK  129  A    between atoms: _299  and  _300
REMARK  130  A    between atoms: _305  and  _306
REMARK  131  A    between atoms: _308  and  _310
REMARK  132  A    between atoms: _310  and  _311
REMARK  133  A    between atoms: _310  and  _313
REMARK  134  A    between atoms: _313  and  _314
REMARK  135  A    between atoms: _317  and  _319
REMARK  136  A    between atoms: _319  and  _320
REMARK  137  A    between atoms: _319  and  _322
REMARK  138  A    between atoms: _322  and  _323
REMARK  139  A    between atoms: _328  and  _330
REMARK  140  A    between atoms: _330  and  _331
REMARK  141  A    between atoms: _330  and  _333
REMARK  142  A    between atoms: _333  and  _334
REMARK  143  A    between atoms: _337  and  _339
REMARK  144  A    between atoms: _339  and  _340
REMARK  145  A    between atoms: _339  and  _342
REMARK  146  A    between atoms: _342  and  _343
REMARK  147  A    between atoms: _343  and  _344
REMARK  148  A    between atoms: _347  and  _349
REMARK  149  A    between atoms: _349  and  _350
REMARK  150  A    between atoms: _349  and  _352
REMARK  151  A    between atoms: _352  and  _353
REMARK  152  A    between atoms: _356  and  _358
REMARK  153  A    between atoms: _358  and  _359
REMARK  154  A    between atoms: _362  and  _364
REMARK  155  A    between atoms: _364  and  _365
REMARK  156  A    between atoms: _364  and  _367
REMARK  157  A    between atoms: _367  and  _368
REMARK  158  A    between atoms: _368  and  _369
REMARK  159  A    between atoms: _369  and  _370
REMARK  160  A    between atoms: _370  and  _371
REMARK  161  A    between atoms: _375  and  _377
REMARK  162  A    between atoms: _377  and  _378
REMARK  163  A    between atoms: _377  and  _380
REMARK  164  A    between atoms: _380  and  _381
REMARK  165  A    between atoms: _381  and  _382
REMARK  166  A    between atoms: _387  and  _389
REMARK  167  A    between atoms: _389  and  _390
REMARK  168  A    between atoms: _389  and  _392
REMARK  169  A    between atoms: _392  and  _393
REMARK  170  A    between atoms: _393  and  _394
REMARK  171  A    between atoms: _397  and  _399
REMARK  172  A    between atoms: _399  and  _400
REMARK  173  A    between atoms: _399  and  _402
REMARK  174  A    between atoms: _402  and  _403
REMARK  175  A    between atoms: _406  and  _408
REMARK  176  A    between atoms: _408  and  _409
REMARK  177  A    between atoms: _408  and  _411
REMARK  178  A    between atoms: _411  and  _412
REMARK  179  A    between atoms: _415  and  _417
REMARK  180  A    between atoms: _417  and  _418
REMARK  181  A    between atoms: _417  and  _420
REMARK  182  A    between atoms: _420  and  _421
REMARK  183  A    between atoms: _424  and  _426
REMARK  184  A    between atoms: _426  and  _427
REMARK  185  A    between atoms: _426  and  _429
REMARK  186  A    between atoms: _429  and  _430
REMARK  187  A    between atoms: _433  and  _435
REMARK  188  A    between atoms: _435  and  _436
REMARK  189  A    between atoms: _435  and  _438
REMARK  190  A    between atoms: _438  and  _439
REMARK  191  A    between atoms: _439  and  _440
REMARK  192  A    between atoms: _440  and  _441
REMARK  193  A    between atoms: _441  and  _442
REMARK  194  A    between atoms: _446  and  _448
REMARK  195  A    between atoms: _448  and  _449
REMARK  196  A    between atoms: _448  and  _451
REMARK  197  A    between atoms: _451  and  _452
REMARK  198  A    between atoms: _452  and  _453
REMARK  199  A    between atoms: _453  and  _454
REMARK  200  A    between atoms: _463  and  _465
REMARK  201  A    between atoms: _465  and  _466
REMARK  202  A    between atoms: _465  and  _468
REMARK  203  A    between atoms: _468  and  _469
REMARK  204  A    between atoms: _472  and  _474
REMARK  205  A    between atoms: _474  and  _475
REMARK  206  A    between atoms: _474  and  _477
REMARK  207  A    between atoms: _477  and  _478
REMARK  208  A    between atoms: _481  and  _483
REMARK  209  A    between atoms: _483  and  _484
REMARK  210  A    between atoms: _483  and  _486
REMARK  211  A    between atoms: _486  and  _487
REMARK  212  A    between atoms: _493  and  _495
REMARK  213  A    between atoms: _495  and  _496
REMARK  214  A    between atoms: _495  and  _498
REMARK  215  A    between atoms: _498  and  _499
REMARK  216  A    between atoms: _499  and  _500
REMARK  217  A    between atoms: _503  and  _505
REMARK  218  A    between atoms: _505  and  _506
REMARK  219  A    between atoms: _505  and  _508
REMARK  220  A    between atoms: _508  and  _509
REMARK  221  A    between atoms: _514  and  _516
REMARK  222  A    between atoms: _516  and  _517
REMARK  223  A    between atoms: _520  and  _522
REMARK  224  A    between atoms: _522  and  _523
REMARK  225  A    between atoms: _522  and  _525
REMARK  226  A    between atoms: _525  and  _526
REMARK  227  A    between atoms: _526  and  _527
REMARK  228  A    between atoms: _527  and  _528
REMARK  229  A    between atoms: _528  and  _529
REMARK  230  A    between atoms: _533  and  _535
REMARK  231  A    between atoms: _535  and  _536
REMARK  232  A    between atoms: _535  and  _538
REMARK  233  A    between atoms: _538  and  _539
REMARK  234  A    between atoms: _541  and  _543
REMARK  235  A    between atoms: _543  and  _544
REMARK  236  A    between atoms: _543  and  _546
REMARK  237  A    between atoms: _549  and  _551
REMARK  238  A    between atoms: _551  and  _552
REMARK  239  A    between atoms: _551  and  _554
REMARK  240  A    between atoms: _554  and  _555
REMARK  241  A    between atoms: _560  and  _561
REMARK  242  A    between atoms: _563  and  _565
REMARK  243  A    between atoms: _565  and  _566
REMARK  244  A    between atoms: _565  and  _568
REMARK  245  A    between atoms: _568  and  _569
REMARK  246  A    between atoms: _574  and  _575
REMARK  247  A    between atoms: _577  and  _579
REMARK  248  A    between atoms: _579  and  _580
REMARK  249  A    between atoms: _579  and  _582
REMARK  250  A    between atoms: _582  and  _583
REMARK  251  A    between atoms: _589  and  _591
REMARK  252  A    between atoms: _591  and  _592
REMARK  253  A    between atoms: _591  and  _594
REMARK  254  A    between atoms: _594  and  _595
REMARK  255  A    between atoms: _595  and  _596
REMARK  256  A    between atoms: _598  and  _600
REMARK  257  A    between atoms: _600  and  _601
REMARK  258  A    between atoms: _600  and  _603
REMARK  259  A    between atoms: _603  and  _604
REMARK  260  A    between atoms: _604  and  _605
REMARK  261  A    between atoms: _605  and  _606
REMARK                            x       y       z     vdW  Elec       q    Type
REMARK                         _______ _______ _______ _____ _____    ______ ____
ROOT
ATOM      1  O   HOH     1     -51.619 -11.237  26.010  0.00  0.00    +0.000 OA
ENDROOT
TORSDOF 0
REMARK  Name = ../refined-set-2016/4u0w/4u0w_pocket.pdb
REMARK  261 active torsions:
REMARK  status: ('A' for Active; 'I' for Inactive)
REMARK    1  A    between atoms: _1  and  _3
REMARK    2  A    between atoms: _3  and  _4
REMARK    3  A    between atoms: _3  and  _6
REMARK    4  A    between atoms: _6  and  _7
REMARK    5  A    between atoms: _7  and  _8
REMARK    6  A    between atoms: _13  and  _15
REMARK    7  A    between atoms: _15  and  _16
REMARK    8  A    between atoms: _15  and  _18
REMARK    9  A    between atoms: _18  and  _19
REMARK   10  A    between atoms: _22  and  _24
REMARK   11  A    between atoms: _24  and  _25
REMARK   12  A    between atoms: _24  and  _27
REMARK   13  A    between atoms: _27  and  _28
REMARK   14  A    between atoms: _31  and  _33
REMARK   15  A    between atoms: _33  and  _34
REMARK   16  A    between atoms: _33  and  _36
REMARK   17  A    between atoms: _36  and  _37
REMARK   18  A    between atoms: _40  and  _42
REMARK   19  A    between atoms: _42  and  _43
REMARK   20  A    between atoms: _42  and  _45
REMARK   21  A    between atoms: _45  and  _46
REMARK   22  A    between atoms: _48  and  _50
REMARK   23  A    between atoms: _50  and  _51
REMARK   24  A    between atoms: _50  and  _53
REMARK   25  A    between atoms: _53  and  _54
REMARK   26  A    between atoms: _60  and  _62
REMARK   27  A    between atoms: _62  and  _63
REMARK   28  A    between atoms: _62  and  _65
REMARK   29  A    between atoms: _65  and  _66
REMARK   30  A    between atoms: _69  and  _71
REMARK   31  A    between atoms: _71  and  _72
REMARK   32  A    between atoms: _71  and  _74
REMARK   33  A    between atoms: _74  and  _75
REMARK   34  A    between atoms: _75  and  _76
REMARK   35  A    between atoms: _79  and  _81
REMARK   36  A    between atoms: _81  and  _82
REMARK   37  A    between atoms: _81  and  _84
REMARK   38  A    between atoms: _84  and  _85
REMARK   39  A    between atoms: _88  and  _90
REMARK   40  A    between atoms: _90  and  _91
REMARK   41  A    between atoms: _90  and  _93
REMARK   42  A    between atoms: _93  and  _94
REMARK   43  A    between atoms: _94  and  _95
REMARK   44  A    between atoms: _97  and  _99
REMARK   45  A    between atoms: _99  and  _100
REMARK   46  A    between atoms: _99  and  _102
REMARK   47  A    between atoms: _102  and  _103
REMARK   48  A    between atoms: _103  and  _104
REMARK   49  A    between atoms: _104  and  _105
REMARK   50  A    between atoms: _105  and  _106
REMARK   51  A    between atoms: _111  and  _112
REMARK   52  A    between atoms: _117  and  _119
REMARK   53  A    between atoms: _119  and  _120
REMARK   54  A    between atoms: _122  and  _124
REMARK   55  A    between atoms: _124  and  _125
REMARK   56  A    between atoms: _124  and  _127
REMARK   57  A    between atoms: _127  and  _128
REMARK   58  A    between atoms: _130  and  _132
REMARK   59  A    between atoms: _132  and  _133
REMARK   60  A    between atoms: _132  and  _135
REMARK   61  A    between atoms: _135  and  _136
REMARK   62  A    between atoms: _139  and  _141
REMARK   63  A    between atoms: _141  and  _142
REMARK   64  A    between atoms: _141  and  _144
REMARK   65  A    between atoms: _144  and  _145
REMARK   66  A    between atoms: _145  and  _146
REMARK   67  A    between atoms: _146  and  _147
REMARK   68  A    between atoms: _156  and  _158
REMARK   69  A    between atoms: _158  and  _159
REMARK   70  A    between atoms: _158  and  _161
REMARK   71  A    between atoms: _161  and  _162
REMARK   72  A    between atoms: _162  and  _163
REMARK   73  A    between atoms: _163  and  _164
REMARK   74  A    between atoms: _173  and  _175
REMARK   75  A    between atoms: _175  and  _176
REMARK   76  A    between atoms: _179  and  _181
REMARK   77  A    between atoms: _181  and  _182
REMARK   78  A    between atoms: _181  and  _184
REMARK   79  A    between atoms: _184  and  _185
REMARK   80  A    between atoms: _188  and  _190
REMARK   81  A    between atoms: _190  and  _191
REMARK   82  A    between atoms: _190  and  _193
REMARK   83  A    between atoms: _193  and  _194
REMARK   84  A    between atoms: _194  and  _195
REMARK   85  A    between atoms: _198  and  _200
REMARK   86  A    between atoms: _200  and  _201
REMARK   87  A    between atoms: _200  and  _203
REMARK   88  A    between atoms: _203  and  _204
REMARK   89  A    between atoms: _206  and  _208
REMARK   90  A    between atoms: _208  and  _209
REMARK   91  A    between atoms: _208  and  _211
REMARK   92  A    between atoms: _211  and  _212
REMARK   93  A    between atoms: _214  and  _216
REMARK   94  A    between atoms: _216  and  _217
REMARK   95  A    between atoms: _216  and  _219
REMARK   96  A    between atoms: _219  and  _220
REMARK   97  A    between atoms: _225  and  _227
REMARK   98  A    between atoms: _227  and  _228
REMARK   99  A    between atoms: _227  and  _230
REMARK  100  A    between atoms: _230  and  _231
REMARK  101  A    between atoms: _234  and  _236
REMARK  102  A    between atoms: _236  and  _237
REMARK  103  A    between atoms: _236  and  _239
REMARK  104  A    between atoms: _239  and  _240
REMARK  105  A    between atoms: _245  and  _247
REMARK  106  A    between atoms: _247  and  _248
REMARK  107  A    between atoms: _247  and  _250
REMARK  108  A    between atoms: _250  and  _251
REMARK  109  A    between atoms: _257  and  _259
REMARK  110  A    between atoms: _259  and  _260
REMARK  111  A    between atoms: _259  and  _262
REMARK  112  A    between atoms: _262  and  _263
REMARK  113  A    between atoms: _263  and  _264
REMARK  114  A    between atoms: _269  and  _271
REMARK  115  A    between atoms: _271  and  _272
REMARK  116  A    between atoms: _271  and  _274
REMARK  117  A    between atoms: _274  and  _275
REMARK  118  A    between atoms: _277  and  _279
REMARK  119  A    between atoms: _279  and  _280
REMARK  120  A    between atoms: _279  and  _282
REMARK  121  A    between atoms: _282  and  _283
REMARK  122  A    between atoms: _285  and  _287
REMARK  123  A    between atoms: _287  and  _288
REMARK  124  A    between atoms: _287  and  _290
REMARK  125  A    between atoms: _290  and  _291
REMARK  126  A    between atoms: _294  and  _296
REMARK  127  A    between atoms: _296  and  _297
REMARK  128  A    between atoms: _296  and  _299
REMARK  129  A    between atoms: _299  and  _300
REMARK  130  A    between atoms: _305  and  _306
REMARK  131  A    between atoms: _308  and  _310
REMARK  132  A    between atoms: _310  and  _311
REMARK  133  A    between atoms: _310  and  _313
REMARK  134  A    between atoms: _313  and  _314
REMARK  135  A    between atoms: _317  and  _319
REMARK  136  A    between atoms: _319  and  _320
REMARK  137  A    between atoms: _319  and  _322
REMARK  138  A    between atoms: _322  and  _323
REMARK  139  A    between atoms: _328  and  _330
REMARK  140  A    between atoms: _330  and  _331
REMARK  141  A    between atoms: _330  and  _333
REMARK  142  A    between atoms: _333  and  _334
REMARK  143  A    between atoms: _337  and  _339
REMARK  144  A    between atoms: _339  and  _340
REMARK  145  A    between atoms: _339  and  _342
REMARK  146  A    between atoms: _342  and  _343
REMARK  147  A    between atoms: _343  and  _344
REMARK  148  A    between atoms: _347  and  _349
REMARK  149  A    between atoms: _349  and  _350
REMARK  150  A    between atoms: _349  and  _352
REMARK  151  A    between atoms: _352  and  _353
REMARK  152  A    between atoms: _356  and  _358
REMARK  153  A    between atoms: _358  and  _359
REMARK  154  A    between atoms: _362  and  _364
REMARK  155  A    between atoms: _364  and  _365
REMARK  156  A    between atoms: _364  and  _367
REMARK  157  A    between atoms: _367  and  _368
REMARK  158  A    between atoms: _368  and  _369
REMARK  159  A    between atoms: _369  and  _370
REMARK  160  A    between atoms: _370  and  _371
REMARK  161  A    between atoms: _375  and  _377
REMARK  162  A    between atoms: _377  and  _378
REMARK  163  A    between atoms: _377  and  _380
REMARK  164  A    between atoms: _380  and  _381
REMARK  165  A    between atoms: _381  and  _382
REMARK  166  A    between atoms: _387  and  _389
REMARK  167  A    between atoms: _389  and  _390
REMARK  168  A    between atoms: _389  and  _392
REMARK  169  A    between atoms: _392  and  _393
REMARK  170  A    between atoms: _393  and  _394
REMARK  171  A    between atoms: _397  and  _399
REMARK  172  A    between atoms: _399  and  _400
REMARK  173  A    between atoms: _399  and  _402
REMARK  174  A    between atoms: _402  and  _403
REMARK  175  A    between atoms: _406  and  _408
REMARK  176  A    between atoms: _408  and  _409
REMARK  177  A    between atoms: _408  and  _411
REMARK  178  A    between atoms: _411  and  _412
REMARK  179  A    between atoms: _415  and  _417
REMARK  180  A    between atoms: _417  and  _418
REMARK  181  A    between atoms: _417  and  _420
REMARK  182  A    between atoms: _420  and  _421
REMARK  183  A    between atoms: _424  and  _426
REMARK  184  A    between atoms: _426  and  _427
REMARK  185  A    between atoms: _426  and  _429
REMARK  186  A    between atoms: _429  and  _430
REMARK  187  A    between atoms: _433  and  _435
REMARK  188  A    between atoms: _435  and  _436
REMARK  189  A    between atoms: _435  and  _438
REMARK  190  A    between atoms: _438  and  _439
REMARK  191  A    between atoms: _439  and  _440
REMARK  192  A    between atoms: _440  and  _441
REMARK  193  A    between atoms: _441  and  _442
REMARK  194  A    between atoms: _446  and  _448
REMARK  195  A    between atoms: _448  and  _449
REMARK  196  A    between atoms: _448  and  _451
REMARK  197  A    between atoms: _451  and  _452
REMARK  198  A    between atoms: _452  and  _453
REMARK  199  A    between atoms: _453  and  _454
REMARK  200  A    between atoms: _463  and  _465
REMARK  201  A    between atoms: _465  and  _466
REMARK  202  A    between atoms: _465  and  _468
REMARK  203  A    between atoms: _468  and  _469
REMARK  204  A    between atoms: _472  and  _474
REMARK  205  A    between atoms: _474  and  _475
REMARK  206  A    between atoms: _474  and  _477
REMARK  207  A    between atoms: _477  and  _478
REMARK  208  A    between atoms: _481  and  _483
REMARK  209  A    between atoms: _483  and  _484
REMARK  210  A    between atoms: _483  and  _486
REMARK  211  A    between atoms: _486  and  _487
REMARK  212  A    between atoms: _493  and  _495
REMARK  213  A    between atoms: _495  and  _496
REMARK  214  A    between atoms: _495  and  _498
REMARK  215  A    between atoms: _498  and  _499
REMARK  216  A    between atoms: _499  and  _500
REMARK  217  A    between atoms: _503  and  _505
REMARK  218  A    between atoms: _505  and  _506
REMARK  219  A    between atoms: _505  and  _508
REMARK  220  A    between atoms: _508  and  _509
REMARK  221  A    between atoms: _514  and  _516
REMARK  222  A    between atoms: _516  and  _517
REMARK  223  A    between atoms: _520  and  _522
REMARK  224  A    between atoms: _522  and  _523
REMARK  225  A    between atoms: _522  and  _525
REMARK  226  A    between atoms: _525  and  _526
REMARK  227  A    between atoms: _526  and  _527
REMARK  228  A    between atoms: _527  and  _528
REMARK  229  A    between atoms: _528  and  _529
REMARK  230  A    between atoms: _533  and  _535
REMARK  231  A    between atoms: _535  and  _536
REMARK  232  A    between atoms: _535  and  _538
REMARK  233  A    between atoms: _538  and  _539
REMARK  234  A    between atoms: _541  and  _543
REMARK  235  A    between atoms: _543  and  _544
REMARK  236  A    between atoms: _543  and  _546
REMARK  237  A    between atoms: _549  and  _551
REMARK  238  A    between atoms: _551  and  _552
REMARK  239  A    between atoms: _551  and  _554
REMARK  240  A    between atoms: _554  and  _555
REMARK  241  A    between atoms: _560  and  _561
REMARK  242  A    between atoms: _563  and  _565
REMARK  243  A    between atoms: _565  and  _566
REMARK  244  A    between atoms: _565  and  _568
REMARK  245  A    between atoms: _568  and  _569
REMARK  246  A    between atoms: _574  and  _575
REMARK  247  A    between atoms: _577  and  _579
REMARK  248  A    between atoms: _579  and  _580
REMARK  249  A    between atoms: _579  and  _582
REMARK  250  A    between atoms: _582  and  _583
REMARK  251  A    between atoms: _589  and  _591
REMARK  252  A    between atoms: _591  and  _592
REMARK  253  A    between atoms: _591  and  _594
REMARK  254  A    between atoms: _594  and  _595
REMARK  255  A    between atoms: _595  and  _596
REMARK  256  A    between atoms: _598  and  _600
REMARK  257  A    between atoms: _600  and  _601
REMARK  258  A    between atoms: _600  and  _603
REMARK  259  A    between atoms: _603  and  _604
REMARK  260  A    between atoms: _604  and  _605
REMARK  261  A    between atoms: _605  and  _606
REMARK                            x       y       z     vdW  Elec       q    Type
REMARK                         _______ _______ _______ _____ _____    ______ ____
ROOT
ATOM      1  O   HOH     1     -48.176  -6.637  20.202  0.00  0.00    +0.000 OA
ENDROOT
TORSDOF 0
REMARK  Name = ../refined-set-2016/4u0w/4u0w_pocket.pdb
REMARK  261 active torsions:
REMARK  status: ('A' for Active; 'I' for Inactive)
REMARK    1  A    between atoms: _1  and  _3
REMARK    2  A    between atoms: _3  and  _4
REMARK    3  A    between atoms: _3  and  _6
REMARK    4  A    between atoms: _6  and  _7
REMARK    5  A    between atoms: _7  and  _8
REMARK    6  A    between atoms: _13  and  _15
REMARK    7  A    between atoms: _15  and  _16
REMARK    8  A    between atoms: _15  and  _18
REMARK    9  A    between atoms: _18  and  _19
REMARK   10  A    between atoms: _22  and  _24
REMARK   11  A    between atoms: _24  and  _25
REMARK   12  A    between atoms: _24  and  _27
REMARK   13  A    between atoms: _27  and  _28
REMARK   14  A    between atoms: _31  and  _33
REMARK   15  A    between atoms: _33  and  _34
REMARK   16  A    between atoms: _33  and  _36
REMARK   17  A    between atoms: _36  and  _37
REMARK   18  A    between atoms: _40  and  _42
REMARK   19  A    between atoms: _42  and  _43
REMARK   20  A    between atoms: _42  and  _45
REMARK   21  A    between atoms: _45  and  _46
REMARK   22  A    between atoms: _48  and  _50
REMARK   23  A    between atoms: _50  and  _51
REMARK   24  A    between atoms: _50  and  _53
REMARK   25  A    between atoms: _53  and  _54
REMARK   26  A    between atoms: _60  and  _62
REMARK   27  A    between atoms: _62  and  _63
REMARK   28  A    between atoms: _62  and  _65
REMARK   29  A    between atoms: _65  and  _66
REMARK   30  A    between atoms: _69  and  _71
REMARK   31  A    between atoms: _71  and  _72
REMARK   32  A    between atoms: _71  and  _74
REMARK   33  A    between atoms: _74  and  _75
REMARK   34  A    between atoms: _75  and  _76
REMARK   35  A    between atoms: _79  and  _81
REMARK   36  A    between atoms: _81  and  _82
REMARK   37  A    between atoms: _81  and  _84
REMARK   38  A    between atoms: _84  and  _85
REMARK   39  A    between atoms: _88  and  _90
REMARK   40  A    between atoms: _90  and  _91
REMARK   41  A    between atoms: _90  and  _93
REMARK   42  A    between atoms: _93  and  _94
REMARK   43  A    between atoms: _94  and  _95
REMARK   44  A    between atoms: _97  and  _99
REMARK   45  A    between atoms: _99  and  _100
REMARK   46  A    between atoms: _99  and  _102
REMARK   47  A    between atoms: _102  and  _103
REMARK   48  A    between atoms: _103  and  _104
REMARK   49  A    between atoms: _104  and  _105
REMARK   50  A    between atoms: _105  and  _106
REMARK   51  A    between atoms: _111  and  _112
REMARK   52  A    between atoms: _117  and  _119
REMARK   53  A    between atoms: _119  and  _120
REMARK   54  A    between atoms: _122  and  _124
REMARK   55  A    between atoms: _124  and  _125
REMARK   56  A    between atoms: _124  and  _127
REMARK   57  A    between atoms: _127  and  _128
REMARK   58  A    between atoms: _130  and  _132
REMARK   59  A    between atoms: _132  and  _133
REMARK   60  A    between atoms: _132  and  _135
REMARK   61  A    between atoms: _135  and  _136
REMARK   62  A    between atoms: _139  and  _141
REMARK   63  A    between atoms: _141  and  _142
REMARK   64  A    between atoms: _141  and  _144
REMARK   65  A    between atoms: _144  and  _145
REMARK   66  A    between atoms: _145  and  _146
REMARK   67  A    between atoms: _146  and  _147
REMARK   68  A    between atoms: _156  and  _158
REMARK   69  A    between atoms: _158  and  _159
REMARK   70  A    between atoms: _158  and  _161
REMARK   71  A    between atoms: _161  and  _162
REMARK   72  A    between atoms: _162  and  _163
REMARK   73  A    between atoms: _163  and  _164
REMARK   74  A    between atoms: _173  and  _175
REMARK   75  A    between atoms: _175  and  _176
REMARK   76  A    between atoms: _179  and  _181
REMARK   77  A    between atoms: _181  and  _182
REMARK   78  A    between atoms: _181  and  _184
REMARK   79  A    between atoms: _184  and  _185
REMARK   80  A    between atoms: _188  and  _190
REMARK   81  A    between atoms: _190  and  _191
REMARK   82  A    between atoms: _190  and  _193
REMARK   83  A    between atoms: _193  and  _194
REMARK   84  A    between atoms: _194  and  _195
REMARK   85  A    between atoms: _198  and  _200
REMARK   86  A    between atoms: _200  and  _201
REMARK   87  A    between atoms: _200  and  _203
REMARK   88  A    between atoms: _203  and  _204
REMARK   89  A    between atoms: _206  and  _208
REMARK   90  A    between atoms: _208  and  _209
REMARK   91  A    between atoms: _208  and  _211
REMARK   92  A    between atoms: _211  and  _212
REMARK   93  A    between atoms: _214  and  _216
REMARK   94  A    between atoms: _216  and  _217
REMARK   95  A    between atoms: _216  and  _219
REMARK   96  A    between atoms: _219  and  _220
REMARK   97  A    between atoms: _225  and  _227
REMARK   98  A    between atoms: _227  and  _228
REMARK   99  A    between atoms: _227  and  _230
REMARK  100  A    between atoms: _230  and  _231
REMARK  101  A    between atoms: _234  and  _236
REMARK  102  A    between atoms: _236  and  _237
REMARK  103  A    between atoms: _236  and  _239
REMARK  104  A    between atoms: _239  and  _240
REMARK  105  A    between atoms: _245  and  _247
REMARK  106  A    between atoms: _247  and  _248
REMARK  107  A    between atoms: _247  and  _250
REMARK  108  A    between atoms: _250  and  _251
REMARK  109  A    between atoms: _257  and  _259
REMARK  110  A    between atoms: _259  and  _260
REMARK  111  A    between atoms: _259  and  _262
REMARK  112  A    between atoms: _262  and  _263
REMARK  113  A    between atoms: _263  and  _264
REMARK  114  A    between atoms: _269  and  _271
REMARK  115  A    between atoms: _271  and  _272
REMARK  116  A    between atoms: _271  and  _274
REMARK  117  A    between atoms: _274  and  _275
REMARK  118  A    between atoms: _277  and  _279
REMARK  119  A    between atoms: _279  and  _280
REMARK  120  A    between atoms: _279  and  _282
REMARK  121  A    between atoms: _282  and  _283
REMARK  122  A    between atoms: _285  and  _287
REMARK  123  A    between atoms: _287  and  _288
REMARK  124  A    between atoms: _287  and  _290
REMARK  125  A    between atoms: _290  and  _291
REMARK  126  A    between atoms: _294  and  _296
REMARK  127  A    between atoms: _296  and  _297
REMARK  128  A    between atoms: _296  and  _299
REMARK  129  A    between atoms: _299  and  _300
REMARK  130  A    between atoms: _305  and  _306
REMARK  131  A    between atoms: _308  and  _310
REMARK  132  A    between atoms: _310  and  _311
REMARK  133  A    between atoms: _310  and  _313
REMARK  134  A    between atoms: _313  and  _314
REMARK  135  A    between atoms: _317  and  _319
REMARK  136  A    between atoms: _319  and  _320
REMARK  137  A    between atoms: _319  and  _322
REMARK  138  A    between atoms: _322  and  _323
REMARK  139  A    between atoms: _328  and  _330
REMARK  140  A    between atoms: _330  and  _331
REMARK  141  A    between atoms: _330  and  _333
REMARK  142  A    between atoms: _333  and  _334
REMARK  143  A    between atoms: _337  and  _339
REMARK  144  A    between atoms: _339  and  _340
REMARK  145  A    between atoms: _339  and  _342
REMARK  146  A    between atoms: _342  and  _343
REMARK  147  A    between atoms: _343  and  _344
REMARK  148  A    between atoms: _347  and  _349
REMARK  149  A    between atoms: _349  and  _350
REMARK  150  A    between atoms: _349  and  _352
REMARK  151  A    between atoms: _352  and  _353
REMARK  152  A    between atoms: _356  and  _358
REMARK  153  A    between atoms: _358  and  _359
REMARK  154  A    between atoms: _362  and  _364
REMARK  155  A    between atoms: _364  and  _365
REMARK  156  A    between atoms: _364  and  _367
REMARK  157  A    between atoms: _367  and  _368
REMARK  158  A    between atoms: _368  and  _369
REMARK  159  A    between atoms: _369  and  _370
REMARK  160  A    between atoms: _370  and  _371
REMARK  161  A    between atoms: _375  and  _377
REMARK  162  A    between atoms: _377  and  _378
REMARK  163  A    between atoms: _377  and  _380
REMARK  164  A    between atoms: _380  and  _381
REMARK  165  A    between atoms: _381  and  _382
REMARK  166  A    between atoms: _387  and  _389
REMARK  167  A    between atoms: _389  and  _390
REMARK  168  A    between atoms: _389  and  _392
REMARK  169  A    between atoms: _392  and  _393
REMARK  170  A    between atoms: _393  and  _394
REMARK  171  A    between atoms: _397  and  _399
REMARK  172  A    between atoms: _399  and  _400
REMARK  173  A    between atoms: _399  and  _402
REMARK  174  A    between atoms: _402  and  _403
REMARK  175  A    between atoms: _406  and  _408
REMARK  176  A    between atoms: _408  and  _409
REMARK  177  A    between atoms: _408  and  _411
REMARK  178  A    between atoms: _411  and  _412
REMARK  179  A    between atoms: _415  and  _417
REMARK  180  A    between atoms: _417  and  _418
REMARK  181  A    between atoms: _417  and  _420
REMARK  182  A    between atoms: _420  and  _421
REMARK  183  A    between atoms: _424  and  _426
REMARK  184  A    between atoms: _426  and  _427
REMARK  185  A    between atoms: _426  and  _429
REMARK  186  A    between atoms: _429  and  _430
REMARK  187  A    between atoms: _433  and  _435
REMARK  188  A    between atoms: _435  and  _436
REMARK  189  A    between atoms: _435  and  _438
REMARK  190  A    between atoms: _438  and  _439
REMARK  191  A    between atoms: _439  and  _440
REMARK  192  A    between atoms: _440  and  _441
REMARK  193  A    between atoms: _441  and  _442
REMARK  194  A    between atoms: _446  and  _448
REMARK  195  A    between atoms: _448  and  _449
REMARK  196  A    between atoms: _448  and  _451
REMARK  197  A    between atoms: _451  and  _452
REMARK  198  A    between atoms: _452  and  _453
REMARK  199  A    between atoms: _453  and  _454
REMARK  200  A    between atoms: _463  and  _465
REMARK  201  A    between atoms: _465  and  _466
REMARK  202  A    between atoms: _465  and  _468
REMARK  203  A    between atoms: _468  and  _469
REMARK  204  A    between atoms: _472  and  _474
REMARK  205  A    between atoms: _474  and  _475
REMARK  206  A    between atoms: _474  and  _477
REMARK  207  A    between atoms: _477  and  _478
REMARK  208  A    between atoms: _481  and  _483
REMARK  209  A    between atoms: _483  and  _484
REMARK  210  A    between atoms: _483  and  _486
REMARK  211  A    between atoms: _486  and  _487
REMARK  212  A    between atoms: _493  and  _495
REMARK  213  A    between atoms: _495  and  _496
REMARK  214  A    between atoms: _495  and  _498
REMARK  215  A    between atoms: _498  and  _499
REMARK  216  A    between atoms: _499  and  _500
REMARK  217  A    between atoms: _503  and  _505
REMARK  218  A    between atoms: _505  and  _506
REMARK  219  A    between atoms: _505  and  _508
REMARK  220  A    between atoms: _508  and  _509
REMARK  221  A    between atoms: _514  and  _516
REMARK  222  A    between atoms: _516  and  _517
REMARK  223  A    between atoms: _520  and  _522
REMARK  224  A    between atoms: _522  and  _523
REMARK  225  A    between atoms: _522  and  _525
REMARK  226  A    between atoms: _525  and  _526
REMARK  227  A    between atoms: _526  and  _527
REMARK  228  A    between atoms: _527  and  _528
REMARK  229  A    between atoms: _528  and  _529
REMARK  230  A    between atoms: _533  and  _535
REMARK  231  A    between atoms: _535  and  _536
REMARK  232  A    between atoms: _535  and  _538
REMARK  233  A    between atoms: _538  and  _539
REMARK  234  A    between atoms: _541  and  _543
REMARK  235  A    between atoms: _543  and  _544
REMARK  236  A    between atoms: _543  and  _546
REMARK  237  A    between atoms: _549  and  _551
REMARK  238  A    between atoms: _551  and  _552
REMARK  239  A    between atoms: _551  and  _554
REMARK  240  A    between atoms: _554  and  _555
REMARK  241  A    between atoms: _560  and  _561
REMARK  242  A    between atoms: _563  and  _565
REMARK  243  A    between atoms: _565  and  _566
REMARK  244  A    between atoms: _565  and  _568
REMARK  245  A    between atoms: _568  and  _569
REMARK  246  A    between atoms: _574  and  _575
REMARK  247  A    between atoms: _577  and  _579
REMARK  248  A    between atoms: _579  and  _580
REMARK  249  A    between atoms: _579  and  _582
REMARK  250  A    between atoms: _582  and  _583
REMARK  251  A    between atoms: _589  and  _591
REMARK  252  A    between atoms: _591  and  _592
REMARK  253  A    between atoms: _591  and  _594
REMARK  254  A    between atoms: _594  and  _595
REMARK  255  A    between atoms: _595  and  _596
REMARK  256  A    between atoms: _598  and  _600
REMARK  257  A    between atoms: _600  and  _601
REMARK  258  A    between atoms: _600  and  _603
REMARK  259  A    between atoms: _603  and  _604
REMARK  260  A    between atoms: _604  and  _605
REMARK  261  A    between atoms: _605  and  _606
REMARK                            x       y       z     vdW  Elec       q    Type
REMARK                         _______ _______ _______ _____ _____    ______ ____
ROOT
ATOM      1  O   HOH     1     -36.072  -7.765  29.629  0.00  0.00    +0.000 OA
ENDROOT
TORSDOF 0
REMARK  Name = ../refined-set-2016/4u0w/4u0w_pocket.pdb
REMARK  261 active torsions:
REMARK  status: ('A' for Active; 'I' for Inactive)
REMARK    1  A    between atoms: _1  and  _3
REMARK    2  A    between atoms: _3  and  _4
REMARK    3  A    between atoms: _3  and  _6
REMARK    4  A    between atoms: _6  and  _7
REMARK    5  A    between atoms: _7  and  _8
REMARK    6  A    between atoms: _13  and  _15
REMARK    7  A    between atoms: _15  and  _16
REMARK    8  A    between atoms: _15  and  _18
REMARK    9  A    between atoms: _18  and  _19
REMARK   10  A    between atoms: _22  and  _24
REMARK   11  A    between atoms: _24  and  _25
REMARK   12  A    between atoms: _24  and  _27
REMARK   13  A    between atoms: _27  and  _28
REMARK   14  A    between atoms: _31  and  _33
REMARK   15  A    between atoms: _33  and  _34
REMARK   16  A    between atoms: _33  and  _36
REMARK   17  A    between atoms: _36  and  _37
REMARK   18  A    between atoms: _40  and  _42
REMARK   19  A    between atoms: _42  and  _43
REMARK   20  A    between atoms: _42  and  _45
REMARK   21  A    between atoms: _45  and  _46
REMARK   22  A    between atoms: _48  and  _50
REMARK   23  A    between atoms: _50  and  _51
REMARK   24  A    between atoms: _50  and  _53
REMARK   25  A    between atoms: _53  and  _54
REMARK   26  A    between atoms: _60  and  _62
REMARK   27  A    between atoms: _62  and  _63
REMARK   28  A    between atoms: _62  and  _65
REMARK   29  A    between atoms: _65  and  _66
REMARK   30  A    between atoms: _69  and  _71
REMARK   31  A    between atoms: _71  and  _72
REMARK   32  A    between atoms: _71  and  _74
REMARK   33  A    between atoms: _74  and  _75
REMARK   34  A    between atoms: _75  and  _76
REMARK   35  A    between atoms: _79  and  _81
REMARK   36  A    between atoms: _81  and  _82
REMARK   37  A    between atoms: _81  and  _84
REMARK   38  A    between atoms: _84  and  _85
REMARK   39  A    between atoms: _88  and  _90
REMARK   40  A    between atoms: _90  and  _91
REMARK   41  A    between atoms: _90  and  _93
REMARK   42  A    between atoms: _93  and  _94
REMARK   43  A    between atoms: _94  and  _95
REMARK   44  A    between atoms: _97  and  _99
REMARK   45  A    between atoms: _99  and  _100
REMARK   46  A    between atoms: _99  and  _102
REMARK   47  A    between atoms: _102  and  _103
REMARK   48  A    between atoms: _103  and  _104
REMARK   49  A    between atoms: _104  and  _105
REMARK   50  A    between atoms: _105  and  _106
REMARK   51  A    between atoms: _111  and  _112
REMARK   52  A    between atoms: _117  and  _119
REMARK   53  A    between atoms: _119  and  _120
REMARK   54  A    between atoms: _122  and  _124
REMARK   55  A    between atoms: _124  and  _125
REMARK   56  A    between atoms: _124  and  _127
REMARK   57  A    between atoms: _127  and  _128
REMARK   58  A    between atoms: _130  and  _132
REMARK   59  A    between atoms: _132  and  _133
REMARK   60  A    between atoms: _132  and  _135
REMARK   61  A    between atoms: _135  and  _136
REMARK   62  A    between atoms: _139  and  _141
REMARK   63  A    between atoms: _141  and  _142
REMARK   64  A    between atoms: _141  and  _144
REMARK   65  A    between atoms: _144  and  _145
REMARK   66  A    between atoms: _145  and  _146
REMARK   67  A    between atoms: _146  and  _147
REMARK   68  A    between atoms: _156  and  _158
REMARK   69  A    between atoms: _158  and  _159
REMARK   70  A    between atoms: _158  and  _161
REMARK   71  A    between atoms: _161  and  _162
REMARK   72  A    between atoms: _162  and  _163
REMARK   73  A    between atoms: _163  and  _164
REMARK   74  A    between atoms: _173  and  _175
REMARK   75  A    between atoms: _175  and  _176
REMARK   76  A    between atoms: _179  and  _181
REMARK   77  A    between atoms: _181  and  _182
REMARK   78  A    between atoms: _181  and  _184
REMARK   79  A    between atoms: _184  and  _185
REMARK   80  A    between atoms: _188  and  _190
REMARK   81  A    between atoms: _190  and  _191
REMARK   82  A    between atoms: _190  and  _193
REMARK   83  A    between atoms: _193  and  _194
REMARK   84  A    between atoms: _194  and  _195
REMARK   85  A    between atoms: _198  and  _200
REMARK   86  A    between atoms: _200  and  _201
REMARK   87  A    between atoms: _200  and  _203
REMARK   88  A    between atoms: _203  and  _204
REMARK   89  A    between atoms: _206  and  _208
REMARK   90  A    between atoms: _208  and  _209
REMARK   91  A    between atoms: _208  and  _211
REMARK   92  A    between atoms: _211  and  _212
REMARK   93  A    between atoms: _214  and  _216
REMARK   94  A    between atoms: _216  and  _217
REMARK   95  A    between atoms: _216  and  _219
REMARK   96  A    between atoms: _219  and  _220
REMARK   97  A    between atoms: _225  and  _227
REMARK   98  A    between atoms: _227  and  _228
REMARK   99  A    between atoms: _227  and  _230
REMARK  100  A    between atoms: _230  and  _231
REMARK  101  A    between atoms: _234  and  _236
REMARK  102  A    between atoms: _236  and  _237
REMARK  103  A    between atoms: _236  and  _239
REMARK  104  A    between atoms: _239  and  _240
REMARK  105  A    between atoms: _245  and  _247
REMARK  106  A    between atoms: _247  and  _248
REMARK  107  A    between atoms: _247  and  _250
REMARK  108  A    between atoms: _250  and  _251
REMARK  109  A    between atoms: _257  and  _259
REMARK  110  A    between atoms: _259  and  _260
REMARK  111  A    between atoms: _259  and  _262
REMARK  112  A    between atoms: _262  and  _263
REMARK  113  A    between atoms: _263  and  _264
REMARK  114  A    between atoms: _269  and  _271
REMARK  115  A    between atoms: _271  and  _272
REMARK  116  A    between atoms: _271  and  _274
REMARK  117  A    between atoms: _274  and  _275
REMARK  118  A    between atoms: _277  and  _279
REMARK  119  A    between atoms: _279  and  _280
REMARK  120  A    between atoms: _279  and  _282
REMARK  121  A    between atoms: _282  and  _283
REMARK  122  A    between atoms: _285  and  _287
REMARK  123  A    between atoms: _287  and  _288
REMARK  124  A    between atoms: _287  and  _290
REMARK  125  A    between atoms: _290  and  _291
REMARK  126  A    between atoms: _294  and  _296
REMARK  127  A    between atoms: _296  and  _297
REMARK  128  A    between atoms: _296  and  _299
REMARK  129  A    between atoms: _299  and  _300
REMARK  130  A    between atoms: _305  and  _306
REMARK  131  A    between atoms: _308  and  _310
REMARK  132  A    between atoms: _310  and  _311
REMARK  133  A    between atoms: _310  and  _313
REMARK  134  A    between atoms: _313  and  _314
REMARK  135  A    between atoms: _317  and  _319
REMARK  136  A    between atoms: _319  and  _320
REMARK  137  A    between atoms: _319  and  _322
REMARK  138  A    between atoms: _322  and  _323
REMARK  139  A    between atoms: _328  and  _330
REMARK  140  A    between atoms: _330  and  _331
REMARK  141  A    between atoms: _330  and  _333
REMARK  142  A    between atoms: _333  and  _334
REMARK  143  A    between atoms: _337  and  _339
REMARK  144  A    between atoms: _339  and  _340
REMARK  145  A    between atoms: _339  and  _342
REMARK  146  A    between atoms: _342  and  _343
REMARK  147  A    between atoms: _343  and  _344
REMARK  148  A    between atoms: _347  and  _349
REMARK  149  A    between atoms: _349  and  _350
REMARK  150  A    between atoms: _349  and  _352
REMARK  151  A    between atoms: _352  and  _353
REMARK  152  A    between atoms: _356  and  _358
REMARK  153  A    between atoms: _358  and  _359
REMARK  154  A    between atoms: _362  and  _364
REMARK  155  A    between atoms: _364  and  _365
REMARK  156  A    between atoms: _364  and  _367
REMARK  157  A    between atoms: _367  and  _368
REMARK  158  A    between atoms: _368  and  _369
REMARK  159  A    between atoms: _369  and  _370
REMARK  160  A    between atoms: _370  and  _371
REMARK  161  A    between atoms: _375  and  _377
REMARK  162  A    between atoms: _377  and  _378
REMARK  163  A    between atoms: _377  and  _380
REMARK  164  A    between atoms: _380  and  _381
REMARK  165  A    between atoms: _381  and  _382
REMARK  166  A    between atoms: _387  and  _389
REMARK  167  A    between atoms: _389  and  _390
REMARK  168  A    between atoms: _389  and  _392
REMARK  169  A    between atoms: _392  and  _393
REMARK  170  A    between atoms: _393  and  _394
REMARK  171  A    between atoms: _397  and  _399
REMARK  172  A    between atoms: _399  and  _400
REMARK  173  A    between atoms: _399  and  _402
REMARK  174  A    between atoms: _402  and  _403
REMARK  175  A    between atoms: _406  and  _408
REMARK  176  A    between atoms: _408  and  _409
REMARK  177  A    between atoms: _408  and  _411
REMARK  178  A    between atoms: _411  and  _412
REMARK  179  A    between atoms: _415  and  _417
REMARK  180  A    between atoms: _417  and  _418
REMARK  181  A    between atoms: _417  and  _420
REMARK  182  A    between atoms: _420  and  _421
REMARK  183  A    between atoms: _424  and  _426
REMARK  184  A    between atoms: _426  and  _427
REMARK  185  A    between atoms: _426  and  _429
REMARK  186  A    between atoms: _429  and  _430
REMARK  187  A    between atoms: _433  and  _435
REMARK  188  A    between atoms: _435  and  _436
REMARK  189  A    between atoms: _435  and  _438
REMARK  190  A    between atoms: _438  and  _439
REMARK  191  A    between atoms: _439  and  _440
REMARK  192  A    between atoms: _440  and  _441
REMARK  193  A    between atoms: _441  and  _442
REMARK  194  A    between atoms: _446  and  _448
REMARK  195  A    between atoms: _448  and  _449
REMARK  196  A    between atoms: _448  and  _451
REMARK  197  A    between atoms: _451  and  _452
REMARK  198  A    between atoms: _452  and  _453
REMARK  199  A    between atoms: _453  and  _454
REMARK  200  A    between atoms: _463  and  _465
REMARK  201  A    between atoms: _465  and  _466
REMARK  202  A    between atoms: _465  and  _468
REMARK  203  A    between atoms: _468  and  _469
REMARK  204  A    between atoms: _472  and  _474
REMARK  205  A    between atoms: _474  and  _475
REMARK  206  A    between atoms: _474  and  _477
REMARK  207  A    between atoms: _477  and  _478
REMARK  208  A    between atoms: _481  and  _483
REMARK  209  A    between atoms: _483  and  _484
REMARK  210  A    between atoms: _483  and  _486
REMARK  211  A    between atoms: _486  and  _487
REMARK  212  A    between atoms: _493  and  _495
REMARK  213  A    between atoms: _495  and  _496
REMARK  214  A    between atoms: _495  and  _498
REMARK  215  A    between atoms: _498  and  _499
REMARK  216  A    between atoms: _499  and  _500
REMARK  217  A    between atoms: _503  and  _505
REMARK  218  A    between atoms: _505  and  _506
REMARK  219  A    between atoms: _505  and  _508
REMARK  220  A    between atoms: _508  and  _509
REMARK  221  A    between atoms: _514  and  _516
REMARK  222  A    between atoms: _516  and  _517
REMARK  223  A    between atoms: _520  and  _522
REMARK  224  A    between atoms: _522  and  _523
REMARK  225  A    between atoms: _522  and  _525
REMARK  226  A    between atoms: _525  and  _526
REMARK  227  A    between atoms: _526  and  _527
REMARK  228  A    between atoms: _527  and  _528
REMARK  229  A    between atoms: _528  and  _529
REMARK  230  A    between atoms: _533  and  _535
REMARK  231  A    between atoms: _535  and  _536
REMARK  232  A    between atoms: _535  and  _538
REMARK  233  A    between atoms: _538  and  _539
REMARK  234  A    between atoms: _541  and  _543
REMARK  235  A    between atoms: _543  and  _544
REMARK  236  A    between atoms: _543  and  _546
REMARK  237  A    between atoms: _549  and  _551
REMARK  238  A    between atoms: _551  and  _552
REMARK  239  A    between atoms: _551  and  _554
REMARK  240  A    between atoms: _554  and  _555
REMARK  241  A    between atoms: _560  and  _561
REMARK  242  A    between atoms: _563  and  _565
REMARK  243  A    between atoms: _565  and  _566
REMARK  244  A    between atoms: _565  and  _568
REMARK  245  A    between atoms: _568  and  _569
REMARK  246  A    between atoms: _574  and  _575
REMARK  247  A    between atoms: _577  and  _579
REMARK  248  A    between atoms: _579  and  _580
REMARK  249  A    between atoms: _579  and  _582
REMARK  250  A    between atoms: _582  and  _583
REMARK  251  A    between atoms: _589  and  _591
REMARK  252  A    between atoms: _591  and  _592
REMARK  253  A    between atoms: _591  and  _594
REMARK  254  A    between atoms: _594  and  _595
REMARK  255  A    between atoms: _595  and  _596
REMARK  256  A    between atoms: _598  and  _600
REMARK  257  A    between atoms: _600  and  _601
REMARK  258  A    between atoms: _600  and  _603
REMARK  259  A    between atoms: _603  and  _604
REMARK  260  A    between atoms: _604  and  _605
REMARK  261  A    between atoms: _605  and  _606
REMARK                            x       y       z     vdW  Elec       q    Type
REMARK                         _______ _______ _______ _____ _____    ______ ____
ROOT
ATOM      1  O   HOH     1     -42.901  -6.248  31.927  0.00  0.00    +0.000 OA
ENDROOT
TORSDOF 0
REMARK  Name = ../refined-set-2016/4u0w/4u0w_pocket.pdb
REMARK  261 active torsions:
REMARK  status: ('A' for Active; 'I' for Inactive)
REMARK    1  A    between atoms: _1  and  _3
REMARK    2  A    between atoms: _3  and  _4
REMARK    3  A    between atoms: _3  and  _6
REMARK    4  A    between atoms: _6  and  _7
REMARK    5  A    between atoms: _7  and  _8
REMARK    6  A    between atoms: _13  and  _15
REMARK    7  A    between atoms: _15  and  _16
REMARK    8  A    between atoms: _15  and  _18
REMARK    9  A    between atoms: _18  and  _19
REMARK   10  A    between atoms: _22  and  _24
REMARK   11  A    between atoms: _24  and  _25
REMARK   12  A    between atoms: _24  and  _27
REMARK   13  A    between atoms: _27  and  _28
REMARK   14  A    between atoms: _31  and  _33
REMARK   15  A    between atoms: _33  and  _34
REMARK   16  A    between atoms: _33  and  _36
REMARK   17  A    between atoms: _36  and  _37
REMARK   18  A    between atoms: _40  and  _42
REMARK   19  A    between atoms: _42  and  _43
REMARK   20  A    between atoms: _42  and  _45
REMARK   21  A    between atoms: _45  and  _46
REMARK   22  A    between atoms: _48  and  _50
REMARK   23  A    between atoms: _50  and  _51
REMARK   24  A    between atoms: _50  and  _53
REMARK   25  A    between atoms: _53  and  _54
REMARK   26  A    between atoms: _60  and  _62
REMARK   27  A    between atoms: _62  and  _63
REMARK   28  A    between atoms: _62  and  _65
REMARK   29  A    between atoms: _65  and  _66
REMARK   30  A    between atoms: _69  and  _71
REMARK   31  A    between atoms: _71  and  _72
REMARK   32  A    between atoms: _71  and  _74
REMARK   33  A    between atoms: _74  and  _75
REMARK   34  A    between atoms: _75  and  _76
REMARK   35  A    between atoms: _79  and  _81
REMARK   36  A    between atoms: _81  and  _82
REMARK   37  A    between atoms: _81  and  _84
REMARK   38  A    between atoms: _84  and  _85
REMARK   39  A    between atoms: _88  and  _90
REMARK   40  A    between atoms: _90  and  _91
REMARK   41  A    between atoms: _90  and  _93
REMARK   42  A    between atoms: _93  and  _94
REMARK   43  A    between atoms: _94  and  _95
REMARK   44  A    between atoms: _97  and  _99
REMARK   45  A    between atoms: _99  and  _100
REMARK   46  A    between atoms: _99  and  _102
REMARK   47  A    between atoms: _102  and  _103
REMARK   48  A    between atoms: _103  and  _104
REMARK   49  A    between atoms: _104  and  _105
REMARK   50  A    between atoms: _105  and  _106
REMARK   51  A    between atoms: _111  and  _112
REMARK   52  A    between atoms: _117  and  _119
REMARK   53  A    between atoms: _119  and  _120
REMARK   54  A    between atoms: _122  and  _124
REMARK   55  A    between atoms: _124  and  _125
REMARK   56  A    between atoms: _124  and  _127
REMARK   57  A    between atoms: _127  and  _128
REMARK   58  A    between atoms: _130  and  _132
REMARK   59  A    between atoms: _132  and  _133
REMARK   60  A    between atoms: _132  and  _135
REMARK   61  A    between atoms: _135  and  _136
REMARK   62  A    between atoms: _139  and  _141
REMARK   63  A    between atoms: _141  and  _142
REMARK   64  A    between atoms: _141  and  _144
REMARK   65  A    between atoms: _144  and  _145
REMARK   66  A    between atoms: _145  and  _146
REMARK   67  A    between atoms: _146  and  _147
REMARK   68  A    between atoms: _156  and  _158
REMARK   69  A    between atoms: _158  and  _159
REMARK   70  A    between atoms: _158  and  _161
REMARK   71  A    between atoms: _161  and  _162
REMARK   72  A    between atoms: _162  and  _163
REMARK   73  A    between atoms: _163  and  _164
REMARK   74  A    between atoms: _173  and  _175
REMARK   75  A    between atoms: _175  and  _176
REMARK   76  A    between atoms: _179  and  _181
REMARK   77  A    between atoms: _181  and  _182
REMARK   78  A    between atoms: _181  and  _184
REMARK   79  A    between atoms: _184  and  _185
REMARK   80  A    between atoms: _188  and  _190
REMARK   81  A    between atoms: _190  and  _191
REMARK   82  A    between atoms: _190  and  _193
REMARK   83  A    between atoms: _193  and  _194
REMARK   84  A    between atoms: _194  and  _195
REMARK   85  A    between atoms: _198  and  _200
REMARK   86  A    between atoms: _200  and  _201
REMARK   87  A    between atoms: _200  and  _203
REMARK   88  A    between atoms: _203  and  _204
REMARK   89  A    between atoms: _206  and  _208
REMARK   90  A    between atoms: _208  and  _209
REMARK   91  A    between atoms: _208  and  _211
REMARK   92  A    between atoms: _211  and  _212
REMARK   93  A    between atoms: _214  and  _216
REMARK   94  A    between atoms: _216  and  _217
REMARK   95  A    between atoms: _216  and  _219
REMARK   96  A    between atoms: _219  and  _220
REMARK   97  A    between atoms: _225  and  _227
REMARK   98  A    between atoms: _227  and  _228
REMARK   99  A    between atoms: _227  and  _230
REMARK  100  A    between atoms: _230  and  _231
REMARK  101  A    between atoms: _234  and  _236
REMARK  102  A    between atoms: _236  and  _237
REMARK  103  A    between atoms: _236  and  _239
REMARK  104  A    between atoms: _239  and  _240
REMARK  105  A    between atoms: _245  and  _247
REMARK  106  A    between atoms: _247  and  _248
REMARK  107  A    between atoms: _247  and  _250
REMARK  108  A    between atoms: _250  and  _251
REMARK  109  A    between atoms: _257  and  _259
REMARK  110  A    between atoms: _259  and  _260
REMARK  111  A    between atoms: _259  and  _262
REMARK  112  A    between atoms: _262  and  _263
REMARK  113  A    between atoms: _263  and  _264
REMARK  114  A    between atoms: _269  and  _271
REMARK  115  A    between atoms: _271  and  _272
REMARK  116  A    between atoms: _271  and  _274
REMARK  117  A    between atoms: _274  and  _275
REMARK  118  A    between atoms: _277  and  _279
REMARK  119  A    between atoms: _279  and  _280
REMARK  120  A    between atoms: _279  and  _282
REMARK  121  A    between atoms: _282  and  _283
REMARK  122  A    between atoms: _285  and  _287
REMARK  123  A    between atoms: _287  and  _288
REMARK  124  A    between atoms: _287  and  _290
REMARK  125  A    between atoms: _290  and  _291
REMARK  126  A    between atoms: _294  and  _296
REMARK  127  A    between atoms: _296  and  _297
REMARK  128  A    between atoms: _296  and  _299
REMARK  129  A    between atoms: _299  and  _300
REMARK  130  A    between atoms: _305  and  _306
REMARK  131  A    between atoms: _308  and  _310
REMARK  132  A    between atoms: _310  and  _311
REMARK  133  A    between atoms: _310  and  _313
REMARK  134  A    between atoms: _313  and  _314
REMARK  135  A    between atoms: _317  and  _319
REMARK  136  A    between atoms: _319  and  _320
REMARK  137  A    between atoms: _319  and  _322
REMARK  138  A    between atoms: _322  and  _323
REMARK  139  A    between atoms: _328  and  _330
REMARK  140  A    between atoms: _330  and  _331
REMARK  141  A    between atoms: _330  and  _333
REMARK  142  A    between atoms: _333  and  _334
REMARK  143  A    between atoms: _337  and  _339
REMARK  144  A    between atoms: _339  and  _340
REMARK  145  A    between atoms: _339  and  _342
REMARK  146  A    between atoms: _342  and  _343
REMARK  147  A    between atoms: _343  and  _344
REMARK  148  A    between atoms: _347  and  _349
REMARK  149  A    between atoms: _349  and  _350
REMARK  150  A    between atoms: _349  and  _352
REMARK  151  A    between atoms: _352  and  _353
REMARK  152  A    between atoms: _356  and  _358
REMARK  153  A    between atoms: _358  and  _359
REMARK  154  A    between atoms: _362  and  _364
REMARK  155  A    between atoms: _364  and  _365
REMARK  156  A    between atoms: _364  and  _367
REMARK  157  A    between atoms: _367  and  _368
REMARK  158  A    between atoms: _368  and  _369
REMARK  159  A    between atoms: _369  and  _370
REMARK  160  A    between atoms: _370  and  _371
REMARK  161  A    between atoms: _375  and  _377
REMARK  162  A    between atoms: _377  and  _378
REMARK  163  A    between atoms: _377  and  _380
REMARK  164  A    between atoms: _380  and  _381
REMARK  165  A    between atoms: _381  and  _382
REMARK  166  A    between atoms: _387  and  _389
REMARK  167  A    between atoms: _389  and  _390
REMARK  168  A    between atoms: _389  and  _392
REMARK  169  A    between atoms: _392  and  _393
REMARK  170  A    between atoms: _393  and  _394
REMARK  171  A    between atoms: _397  and  _399
REMARK  172  A    between atoms: _399  and  _400
REMARK  173  A    between atoms: _399  and  _402
REMARK  174  A    between atoms: _402  and  _403
REMARK  175  A    between atoms: _406  and  _408
REMARK  176  A    between atoms: _408  and  _409
REMARK  177  A    between atoms: _408  and  _411
REMARK  178  A    between atoms: _411  and  _412
REMARK  179  A    between atoms: _415  and  _417
REMARK  180  A    between atoms: _417  and  _418
REMARK  181  A    between atoms: _417  and  _420
REMARK  182  A    between atoms: _420  and  _421
REMARK  183  A    between atoms: _424  and  _426
REMARK  184  A    between atoms: _426  and  _427
REMARK  185  A    between atoms: _426  and  _429
REMARK  186  A    between atoms: _429  and  _430
REMARK  187  A    between atoms: _433  and  _435
REMARK  188  A    between atoms: _435  and  _436
REMARK  189  A    between atoms: _435  and  _438
REMARK  190  A    between atoms: _438  and  _439
REMARK  191  A    between atoms: _439  and  _440
REMARK  192  A    between atoms: _440  and  _441
REMARK  193  A    between atoms: _441  and  _442
REMARK  194  A    between atoms: _446  and  _448
REMARK  195  A    between atoms: _448  and  _449
REMARK  196  A    between atoms: _448  and  _451
REMARK  197  A    between atoms: _451  and  _452
REMARK  198  A    between atoms: _452  and  _453
REMARK  199  A    between atoms: _453  and  _454
REMARK  200  A    between atoms: _463  and  _465
REMARK  201  A    between atoms: _465  and  _466
REMARK  202  A    between atoms: _465  and  _468
REMARK  203  A    between atoms: _468  and  _469
REMARK  204  A    between atoms: _472  and  _474
REMARK  205  A    between atoms: _474  and  _475
REMARK  206  A    between atoms: _474  and  _477
REMARK  207  A    between atoms: _477  and  _478
REMARK  208  A    between atoms: _481  and  _483
REMARK  209  A    between atoms: _483  and  _484
REMARK  210  A    between atoms: _483  and  _486
REMARK  211  A    between atoms: _486  and  _487
REMARK  212  A    between atoms: _493  and  _495
REMARK  213  A    between atoms: _495  and  _496
REMARK  214  A    between atoms: _495  and  _498
REMARK  215  A    between atoms: _498  and  _499
REMARK  216  A    between atoms: _499  and  _500
REMARK  217  A    between atoms: _503  and  _505
REMARK  218  A    between atoms: _505  and  _506
REMARK  219  A    between atoms: _505  and  _508
REMARK  220  A    between atoms: _508  and  _509
REMARK  221  A    between atoms: _514  and  _516
REMARK  222  A    between atoms: _516  and  _517
REMARK  223  A    between atoms: _520  and  _522
REMARK  224  A    between atoms: _522  and  _523
REMARK  225  A    between atoms: _522  and  _525
REMARK  226  A    between atoms: _525  and  _526
REMARK  227  A    between atoms: _526  and  _527
REMARK  228  A    between atoms: _527  and  _528
REMARK  229  A    between atoms: _528  and  _529
REMARK  230  A    between atoms: _533  and  _535
REMARK  231  A    between atoms: _535  and  _536
REMARK  232  A    between atoms: _535  and  _538
REMARK  233  A    between atoms: _538  and  _539
REMARK  234  A    between atoms: _541  and  _543
REMARK  235  A    between atoms: _543  and  _544
REMARK  236  A    between atoms: _543  and  _546
REMARK  237  A    between atoms: _549  and  _551
REMARK  238  A    between atoms: _551  and  _552
REMARK  239  A    between atoms: _551  and  _554
REMARK  240  A    between atoms: _554  and  _555
REMARK  241  A    between atoms: _560  and  _561
REMARK  242  A    between atoms: _563  and  _565
REMARK  243  A    between atoms: _565  and  _566
REMARK  244  A    between atoms: _565  and  _568
REMARK  245  A    between atoms: _568  and  _569
REMARK  246  A    between atoms: _574  and  _575
REMARK  247  A    between atoms: _577  and  _579
REMARK  248  A    between atoms: _579  and  _580
REMARK  249  A    between atoms: _579  and  _582
REMARK  250  A    between atoms: _582  and  _583
REMARK  251  A    between atoms: _589  and  _591
REMARK  252  A    between atoms: _591  and  _592
REMARK  253  A    between atoms: _591  and  _594
REMARK  254  A    between atoms: _594  and  _595
REMARK  255  A    between atoms: _595  and  _596
REMARK  256  A    between atoms: _598  and  _600
REMARK  257  A    between atoms: _600  and  _601
REMARK  258  A    between atoms: _600  and  _603
REMARK  259  A    between atoms: _603  and  _604
REMARK  260  A    between atoms: _604  and  _605
REMARK  261  A    between atoms: _605  and  _606
REMARK                            x       y       z     vdW  Elec       q    Type
REMARK                         _______ _______ _______ _____ _____    ______ ____
ROOT
ATOM      1  O   HOH     1     -36.542  -5.657  27.965  0.00  0.00    +0.000 OA
ENDROOT
TORSDOF 0
REMARK  Name = ../refined-set-2016/4u0w/4u0w_pocket.pdb
REMARK  261 active torsions:
REMARK  status: ('A' for Active; 'I' for Inactive)
REMARK    1  A    between atoms: _1  and  _3
REMARK    2  A    between atoms: _3  and  _4
REMARK    3  A    between atoms: _3  and  _6
REMARK    4  A    between atoms: _6  and  _7
REMARK    5  A    between atoms: _7  and  _8
REMARK    6  A    between atoms: _13  and  _15
REMARK    7  A    between atoms: _15  and  _16
REMARK    8  A    between atoms: _15  and  _18
REMARK    9  A    between atoms: _18  and  _19
REMARK   10  A    between atoms: _22  and  _24
REMARK   11  A    between atoms: _24  and  _25
REMARK   12  A    between atoms: _24  and  _27
REMARK   13  A    between atoms: _27  and  _28
REMARK   14  A    between atoms: _31  and  _33
REMARK   15  A    between atoms: _33  and  _34
REMARK   16  A    between atoms: _33  and  _36
REMARK   17  A    between atoms: _36  and  _37
REMARK   18  A    between atoms: _40  and  _42
REMARK   19  A    between atoms: _42  and  _43
REMARK   20  A    between atoms: _42  and  _45
REMARK   21  A    between atoms: _45  and  _46
REMARK   22  A    between atoms: _48  and  _50
REMARK   23  A    between atoms: _50  and  _51
REMARK   24  A    between atoms: _50  and  _53
REMARK   25  A    between atoms: _53  and  _54
REMARK   26  A    between atoms: _60  and  _62
REMARK   27  A    between atoms: _62  and  _63
REMARK   28  A    between atoms: _62  and  _65
REMARK   29  A    between atoms: _65  and  _66
REMARK   30  A    between atoms: _69  and  _71
REMARK   31  A    between atoms: _71  and  _72
REMARK   32  A    between atoms: _71  and  _74
REMARK   33  A    between atoms: _74  and  _75
REMARK   34  A    between atoms: _75  and  _76
REMARK   35  A    between atoms: _79  and  _81
REMARK   36  A    between atoms: _81  and  _82
REMARK   37  A    between atoms: _81  and  _84
REMARK   38  A    between atoms: _84  and  _85
REMARK   39  A    between atoms: _88  and  _90
REMARK   40  A    between atoms: _90  and  _91
REMARK   41  A    between atoms: _90  and  _93
REMARK   42  A    between atoms: _93  and  _94
REMARK   43  A    between atoms: _94  and  _95
REMARK   44  A    between atoms: _97  and  _99
REMARK   45  A    between atoms: _99  and  _100
REMARK   46  A    between atoms: _99  and  _102
REMARK   47  A    between atoms: _102  and  _103
REMARK   48  A    between atoms: _103  and  _104
REMARK   49  A    between atoms: _104  and  _105
REMARK   50  A    between atoms: _105  and  _106
REMARK   51  A    between atoms: _111  and  _112
REMARK   52  A    between atoms: _117  and  _119
REMARK   53  A    between atoms: _119  and  _120
REMARK   54  A    between atoms: _122  and  _124
REMARK   55  A    between atoms: _124  and  _125
REMARK   56  A    between atoms: _124  and  _127
REMARK   57  A    between atoms: _127  and  _128
REMARK   58  A    between atoms: _130  and  _132
REMARK   59  A    between atoms: _132  and  _133
REMARK   60  A    between atoms: _132  and  _135
REMARK   61  A    between atoms: _135  and  _136
REMARK   62  A    between atoms: _139  and  _141
REMARK   63  A    between atoms: _141  and  _142
REMARK   64  A    between atoms: _141  and  _144
REMARK   65  A    between atoms: _144  and  _145
REMARK   66  A    between atoms: _145  and  _146
REMARK   67  A    between atoms: _146  and  _147
REMARK   68  A    between atoms: _156  and  _158
REMARK   69  A    between atoms: _158  and  _159
REMARK   70  A    between atoms: _158  and  _161
REMARK   71  A    between atoms: _161  and  _162
REMARK   72  A    between atoms: _162  and  _163
REMARK   73  A    between atoms: _163  and  _164
REMARK   74  A    between atoms: _173  and  _175
REMARK   75  A    between atoms: _175  and  _176
REMARK   76  A    between atoms: _179  and  _181
REMARK   77  A    between atoms: _181  and  _182
REMARK   78  A    between atoms: _181  and  _184
REMARK   79  A    between atoms: _184  and  _185
REMARK   80  A    between atoms: _188  and  _190
REMARK   81  A    between atoms: _190  and  _191
REMARK   82  A    between atoms: _190  and  _193
REMARK   83  A    between atoms: _193  and  _194
REMARK   84  A    between atoms: _194  and  _195
REMARK   85  A    between atoms: _198  and  _200
REMARK   86  A    between atoms: _200  and  _201
REMARK   87  A    between atoms: _200  and  _203
REMARK   88  A    between atoms: _203  and  _204
REMARK   89  A    between atoms: _206  and  _208
REMARK   90  A    between atoms: _208  and  _209
REMARK   91  A    between atoms: _208  and  _211
REMARK   92  A    between atoms: _211  and  _212
REMARK   93  A    between atoms: _214  and  _216
REMARK   94  A    between atoms: _216  and  _217
REMARK   95  A    between atoms: _216  and  _219
REMARK   96  A    between atoms: _219  and  _220
REMARK   97  A    between atoms: _225  and  _227
REMARK   98  A    between atoms: _227  and  _228
REMARK   99  A    between atoms: _227  and  _230
REMARK  100  A    between atoms: _230  and  _231
REMARK  101  A    between atoms: _234  and  _236
REMARK  102  A    between atoms: _236  and  _237
REMARK  103  A    between atoms: _236  and  _239
REMARK  104  A    between atoms: _239  and  _240
REMARK  105  A    between atoms: _245  and  _247
REMARK  106  A    between atoms: _247  and  _248
REMARK  107  A    between atoms: _247  and  _250
REMARK  108  A    between atoms: _250  and  _251
REMARK  109  A    between atoms: _257  and  _259
REMARK  110  A    between atoms: _259  and  _260
REMARK  111  A    between atoms: _259  and  _262
REMARK  112  A    between atoms: _262  and  _263
REMARK  113  A    between atoms: _263  and  _264
REMARK  114  A    between atoms: _269  and  _271
REMARK  115  A    between atoms: _271  and  _272
REMARK  116  A    between atoms: _271  and  _274
REMARK  117  A    between atoms: _274  and  _275
REMARK  118  A    between atoms: _277  and  _279
REMARK  119  A    between atoms: _279  and  _280
REMARK  120  A    between atoms: _279  and  _282
REMARK  121  A    between atoms: _282  and  _283
REMARK  122  A    between atoms: _285  and  _287
REMARK  123  A    between atoms: _287  and  _288
REMARK  124  A    between atoms: _287  and  _290
REMARK  125  A    between atoms: _290  and  _291
REMARK  126  A    between atoms: _294  and  _296
REMARK  127  A    between atoms: _296  and  _297
REMARK  128  A    between atoms: _296  and  _299
REMARK  129  A    between atoms: _299  and  _300
REMARK  130  A    between atoms: _305  and  _306
REMARK  131  A    between atoms: _308  and  _310
REMARK  132  A    between atoms: _310  and  _311
REMARK  133  A    between atoms: _310  and  _313
REMARK  134  A    between atoms: _313  and  _314
REMARK  135  A    between atoms: _317  and  _319
REMARK  136  A    between atoms: _319  and  _320
REMARK  137  A    between atoms: _319  and  _322
REMARK  138  A    between atoms: _322  and  _323
REMARK  139  A    between atoms: _328  and  _330
REMARK  140  A    between atoms: _330  and  _331
REMARK  141  A    between atoms: _330  and  _333
REMARK  142  A    between atoms: _333  and  _334
REMARK  143  A    between atoms: _337  and  _339
REMARK  144  A    between atoms: _339  and  _340
REMARK  145  A    between atoms: _339  and  _342
REMARK  146  A    between atoms: _342  and  _343
REMARK  147  A    between atoms: _343  and  _344
REMARK  148  A    between atoms: _347  and  _349
REMARK  149  A    between atoms: _349  and  _350
REMARK  150  A    between atoms: _349  and  _352
REMARK  151  A    between atoms: _352  and  _353
REMARK  152  A    between atoms: _356  and  _358
REMARK  153  A    between atoms: _358  and  _359
REMARK  154  A    between atoms: _362  and  _364
REMARK  155  A    between atoms: _364  and  _365
REMARK  156  A    between atoms: _364  and  _367
REMARK  157  A    between atoms: _367  and  _368
REMARK  158  A    between atoms: _368  and  _369
REMARK  159  A    between atoms: _369  and  _370
REMARK  160  A    between atoms: _370  and  _371
REMARK  161  A    between atoms: _375  and  _377
REMARK  162  A    between atoms: _377  and  _378
REMARK  163  A    between atoms: _377  and  _380
REMARK  164  A    between atoms: _380  and  _381
REMARK  165  A    between atoms: _381  and  _382
REMARK  166  A    between atoms: _387  and  _389
REMARK  167  A    between atoms: _389  and  _390
REMARK  168  A    between atoms: _389  and  _392
REMARK  169  A    between atoms: _392  and  _393
REMARK  170  A    between atoms: _393  and  _394
REMARK  171  A    between atoms: _397  and  _399
REMARK  172  A    between atoms: _399  and  _400
REMARK  173  A    between atoms: _399  and  _402
REMARK  174  A    between atoms: _402  and  _403
REMARK  175  A    between atoms: _406  and  _408
REMARK  176  A    between atoms: _408  and  _409
REMARK  177  A    between atoms: _408  and  _411
REMARK  178  A    between atoms: _411  and  _412
REMARK  179  A    between atoms: _415  and  _417
REMARK  180  A    between atoms: _417  and  _418
REMARK  181  A    between atoms: _417  and  _420
REMARK  182  A    between atoms: _420  and  _421
REMARK  183  A    between atoms: _424  and  _426
REMARK  184  A    between atoms: _426  and  _427
REMARK  185  A    between atoms: _426  and  _429
REMARK  186  A    between atoms: _429  and  _430
REMARK  187  A    between atoms: _433  and  _435
REMARK  188  A    between atoms: _435  and  _436
REMARK  189  A    between atoms: _435  and  _438
REMARK  190  A    between atoms: _438  and  _439
REMARK  191  A    between atoms: _439  and  _440
REMARK  192  A    between atoms: _440  and  _441
REMARK  193  A    between atoms: _441  and  _442
REMARK  194  A    between atoms: _446  and  _448
REMARK  195  A    between atoms: _448  and  _449
REMARK  196  A    between atoms: _448  and  _451
REMARK  197  A    between atoms: _451  and  _452
REMARK  198  A    between atoms: _452  and  _453
REMARK  199  A    between atoms: _453  and  _454
REMARK  200  A    between atoms: _463  and  _465
REMARK  201  A    between atoms: _465  and  _466
REMARK  202  A    between atoms: _465  and  _468
REMARK  203  A    between atoms: _468  and  _469
REMARK  204  A    between atoms: _472  and  _474
REMARK  205  A    between atoms: _474  and  _475
REMARK  206  A    between atoms: _474  and  _477
REMARK  207  A    between atoms: _477  and  _478
REMARK  208  A    between atoms: _481  and  _483
REMARK  209  A    between atoms: _483  and  _484
REMARK  210  A    between atoms: _483  and  _486
REMARK  211  A    between atoms: _486  and  _487
REMARK  212  A    between atoms: _493  and  _495
REMARK  213  A    between atoms: _495  and  _496
REMARK  214  A    between atoms: _495  and  _498
REMARK  215  A    between atoms: _498  and  _499
REMARK  216  A    between atoms: _499  and  _500
REMARK  217  A    between atoms: _503  and  _505
REMARK  218  A    between atoms: _505  and  _506
REMARK  219  A    between atoms: _505  and  _508
REMARK  220  A    between atoms: _508  and  _509
REMARK  221  A    between atoms: _514  and  _516
REMARK  222  A    between atoms: _516  and  _517
REMARK  223  A    between atoms: _520  and  _522
REMARK  224  A    between atoms: _522  and  _523
REMARK  225  A    between atoms: _522  and  _525
REMARK  226  A    between atoms: _525  and  _526
REMARK  227  A    between atoms: _526  and  _527
REMARK  228  A    between atoms: _527  and  _528
REMARK  229  A    between atoms: _528  and  _529
REMARK  230  A    between atoms: _533  and  _535
REMARK  231  A    between atoms: _535  and  _536
REMARK  232  A    between atoms: _535  and  _538
REMARK  233  A    between atoms: _538  and  _539
REMARK  234  A    between atoms: _541  and  _543
REMARK  235  A    between atoms: _543  and  _544
REMARK  236  A    between atoms: _543  and  _546
REMARK  237  A    between atoms: _549  and  _551
REMARK  238  A    between atoms: _551  and  _552
REMARK  239  A    between atoms: _551  and  _554
REMARK  240  A    between atoms: _554  and  _555
REMARK  241  A    between atoms: _560  and  _561
REMARK  242  A    between atoms: _563  and  _565
REMARK  243  A    between atoms: _565  and  _566
REMARK  244  A    between atoms: _565  and  _568
REMARK  245  A    between atoms: _568  and  _569
REMARK  246  A    between atoms: _574  and  _575
REMARK  247  A    between atoms: _577  and  _579
REMARK  248  A    between atoms: _579  and  _580
REMARK  249  A    between atoms: _579  and  _582
REMARK  250  A    between atoms: _582  and  _583
REMARK  251  A    between atoms: _589  and  _591
REMARK  252  A    between atoms: _591  and  _592
REMARK  253  A    between atoms: _591  and  _594
REMARK  254  A    between atoms: _594  and  _595
REMARK  255  A    between atoms: _595  and  _596
REMARK  256  A    between atoms: _598  and  _600
REMARK  257  A    between atoms: _600  and  _601
REMARK  258  A    between atoms: _600  and  _603
REMARK  259  A    between atoms: _603  and  _604
REMARK  260  A    between atoms: _604  and  _605
REMARK  261  A    between atoms: _605  and  _606
REMARK                            x       y       z     vdW  Elec       q    Type
REMARK                         _______ _______ _______ _____ _____    ______ ____
ROOT
ATOM      1  O   HOH     1     -52.407 -12.533  28.378  0.00  0.00    +0.000 OA
ENDROOT
TORSDOF 0
REMARK  Name = ../refined-set-2016/4u0w/4u0w_pocket.pdb
REMARK  261 active torsions:
REMARK  status: ('A' for Active; 'I' for Inactive)
REMARK    1  A    between atoms: _1  and  _3
REMARK    2  A    between atoms: _3  and  _4
REMARK    3  A    between atoms: _3  and  _6
REMARK    4  A    between atoms: _6  and  _7
REMARK    5  A    between atoms: _7  and  _8
REMARK    6  A    between atoms: _13  and  _15
REMARK    7  A    between atoms: _15  and  _16
REMARK    8  A    between atoms: _15  and  _18
REMARK    9  A    between atoms: _18  and  _19
REMARK   10  A    between atoms: _22  and  _24
REMARK   11  A    between atoms: _24  and  _25
REMARK   12  A    between atoms: _24  and  _27
REMARK   13  A    between atoms: _27  and  _28
REMARK   14  A    between atoms: _31  and  _33
REMARK   15  A    between atoms: _33  and  _34
REMARK   16  A    between atoms: _33  and  _36
REMARK   17  A    between atoms: _36  and  _37
REMARK   18  A    between atoms: _40  and  _42
REMARK   19  A    between atoms: _42  and  _43
REMARK   20  A    between atoms: _42  and  _45
REMARK   21  A    between atoms: _45  and  _46
REMARK   22  A    between atoms: _48  and  _50
REMARK   23  A    between atoms: _50  and  _51
REMARK   24  A    between atoms: _50  and  _53
REMARK   25  A    between atoms: _53  and  _54
REMARK   26  A    between atoms: _60  and  _62
REMARK   27  A    between atoms: _62  and  _63
REMARK   28  A    between atoms: _62  and  _65
REMARK   29  A    between atoms: _65  and  _66
REMARK   30  A    between atoms: _69  and  _71
REMARK   31  A    between atoms: _71  and  _72
REMARK   32  A    between atoms: _71  and  _74
REMARK   33  A    between atoms: _74  and  _75
REMARK   34  A    between atoms: _75  and  _76
REMARK   35  A    between atoms: _79  and  _81
REMARK   36  A    between atoms: _81  and  _82
REMARK   37  A    between atoms: _81  and  _84
REMARK   38  A    between atoms: _84  and  _85
REMARK   39  A    between atoms: _88  and  _90
REMARK   40  A    between atoms: _90  and  _91
REMARK   41  A    between atoms: _90  and  _93
REMARK   42  A    between atoms: _93  and  _94
REMARK   43  A    between atoms: _94  and  _95
REMARK   44  A    between atoms: _97  and  _99
REMARK   45  A    between atoms: _99  and  _100
REMARK   46  A    between atoms: _99  and  _102
REMARK   47  A    between atoms: _102  and  _103
REMARK   48  A    between atoms: _103  and  _104
REMARK   49  A    between atoms: _104  and  _105
REMARK   50  A    between atoms: _105  and  _106
REMARK   51  A    between atoms: _111  and  _112
REMARK   52  A    between atoms: _117  and  _119
REMARK   53  A    between atoms: _119  and  _120
REMARK   54  A    between atoms: _122  and  _124
REMARK   55  A    between atoms: _124  and  _125
REMARK   56  A    between atoms: _124  and  _127
REMARK   57  A    between atoms: _127  and  _128
REMARK   58  A    between atoms: _130  and  _132
REMARK   59  A    between atoms: _132  and  _133
REMARK   60  A    between atoms: _132  and  _135
REMARK   61  A    between atoms: _135  and  _136
REMARK   62  A    between atoms: _139  and  _141
REMARK   63  A    between atoms: _141  and  _142
REMARK   64  A    between atoms: _141  and  _144
REMARK   65  A    between atoms: _144  and  _145
REMARK   66  A    between atoms: _145  and  _146
REMARK   67  A    between atoms: _146  and  _147
REMARK   68  A    between atoms: _156  and  _158
REMARK   69  A    between atoms: _158  and  _159
REMARK   70  A    between atoms: _158  and  _161
REMARK   71  A    between atoms: _161  and  _162
REMARK   72  A    between atoms: _162  and  _163
REMARK   73  A    between atoms: _163  and  _164
REMARK   74  A    between atoms: _173  and  _175
REMARK   75  A    between atoms: _175  and  _176
REMARK   76  A    between atoms: _179  and  _181
REMARK   77  A    between atoms: _181  and  _182
REMARK   78  A    between atoms: _181  and  _184
REMARK   79  A    between atoms: _184  and  _185
REMARK   80  A    between atoms: _188  and  _190
REMARK   81  A    between atoms: _190  and  _191
REMARK   82  A    between atoms: _190  and  _193
REMARK   83  A    between atoms: _193  and  _194
REMARK   84  A    between atoms: _194  and  _195
REMARK   85  A    between atoms: _198  and  _200
REMARK   86  A    between atoms: _200  and  _201
REMARK   87  A    between atoms: _200  and  _203
REMARK   88  A    between atoms: _203  and  _204
REMARK   89  A    between atoms: _206  and  _208
REMARK   90  A    between atoms: _208  and  _209
REMARK   91  A    between atoms: _208  and  _211
REMARK   92  A    between atoms: _211  and  _212
REMARK   93  A    between atoms: _214  and  _216
REMARK   94  A    between atoms: _216  and  _217
REMARK   95  A    between atoms: _216  and  _219
REMARK   96  A    between atoms: _219  and  _220
REMARK   97  A    between atoms: _225  and  _227
REMARK   98  A    between atoms: _227  and  _228
REMARK   99  A    between atoms: _227  and  _230
REMARK  100  A    between atoms: _230  and  _231
REMARK  101  A    between atoms: _234  and  _236
REMARK  102  A    between atoms: _236  and  _237
REMARK  103  A    between atoms: _236  and  _239
REMARK  104  A    between atoms: _239  and  _240
REMARK  105  A    between atoms: _245  and  _247
REMARK  106  A    between atoms: _247  and  _248
REMARK  107  A    between atoms: _247  and  _250
REMARK  108  A    between atoms: _250  and  _251
REMARK  109  A    between atoms: _257  and  _259
REMARK  110  A    between atoms: _259  and  _260
REMARK  111  A    between atoms: _259  and  _262
REMARK  112  A    between atoms: _262  and  _263
REMARK  113  A    between atoms: _263  and  _264
REMARK  114  A    between atoms: _269  and  _271
REMARK  115  A    between atoms: _271  and  _272
REMARK  116  A    between atoms: _271  and  _274
REMARK  117  A    between atoms: _274  and  _275
REMARK  118  A    between atoms: _277  and  _279
REMARK  119  A    between atoms: _279  and  _280
REMARK  120  A    between atoms: _279  and  _282
REMARK  121  A    between atoms: _282  and  _283
REMARK  122  A    between atoms: _285  and  _287
REMARK  123  A    between atoms: _287  and  _288
REMARK  124  A    between atoms: _287  and  _290
REMARK  125  A    between atoms: _290  and  _291
REMARK  126  A    between atoms: _294  and  _296
REMARK  127  A    between atoms: _296  and  _297
REMARK  128  A    between atoms: _296  and  _299
REMARK  129  A    between atoms: _299  and  _300
REMARK  130  A    between atoms: _305  and  _306
REMARK  131  A    between atoms: _308  and  _310
REMARK  132  A    between atoms: _310  and  _311
REMARK  133  A    between atoms: _310  and  _313
REMARK  134  A    between atoms: _313  and  _314
REMARK  135  A    between atoms: _317  and  _319
REMARK  136  A    between atoms: _319  and  _320
REMARK  137  A    between atoms: _319  and  _322
REMARK  138  A    between atoms: _322  and  _323
REMARK  139  A    between atoms: _328  and  _330
REMARK  140  A    between atoms: _330  and  _331
REMARK  141  A    between atoms: _330  and  _333
REMARK  142  A    between atoms: _333  and  _334
REMARK  143  A    between atoms: _337  and  _339
REMARK  144  A    between atoms: _339  and  _340
REMARK  145  A    between atoms: _339  and  _342
REMARK  146  A    between atoms: _342  and  _343
REMARK  147  A    between atoms: _343  and  _344
REMARK  148  A    between atoms: _347  and  _349
REMARK  149  A    between atoms: _349  and  _350
REMARK  150  A    between atoms: _349  and  _352
REMARK  151  A    between atoms: _352  and  _353
REMARK  152  A    between atoms: _356  and  _358
REMARK  153  A    between atoms: _358  and  _359
REMARK  154  A    between atoms: _362  and  _364
REMARK  155  A    between atoms: _364  and  _365
REMARK  156  A    between atoms: _364  and  _367
REMARK  157  A    between atoms: _367  and  _368
REMARK  158  A    between atoms: _368  and  _369
REMARK  159  A    between atoms: _369  and  _370
REMARK  160  A    between atoms: _370  and  _371
REMARK  161  A    between atoms: _375  and  _377
REMARK  162  A    between atoms: _377  and  _378
REMARK  163  A    between atoms: _377  and  _380
REMARK  164  A    between atoms: _380  and  _381
REMARK  165  A    between atoms: _381  and  _382
REMARK  166  A    between atoms: _387  and  _389
REMARK  167  A    between atoms: _389  and  _390
REMARK  168  A    between atoms: _389  and  _392
REMARK  169  A    between atoms: _392  and  _393
REMARK  170  A    between atoms: _393  and  _394
REMARK  171  A    between atoms: _397  and  _399
REMARK  172  A    between atoms: _399  and  _400
REMARK  173  A    between atoms: _399  and  _402
REMARK  174  A    between atoms: _402  and  _403
REMARK  175  A    between atoms: _406  and  _408
REMARK  176  A    between atoms: _408  and  _409
REMARK  177  A    between atoms: _408  and  _411
REMARK  178  A    between atoms: _411  and  _412
REMARK  179  A    between atoms: _415  and  _417
REMARK  180  A    between atoms: _417  and  _418
REMARK  181  A    between atoms: _417  and  _420
REMARK  182  A    between atoms: _420  and  _421
REMARK  183  A    between atoms: _424  and  _426
REMARK  184  A    between atoms: _426  and  _427
REMARK  185  A    between atoms: _426  and  _429
REMARK  186  A    between atoms: _429  and  _430
REMARK  187  A    between atoms: _433  and  _435
REMARK  188  A    between atoms: _435  and  _436
REMARK  189  A    between atoms: _435  and  _438
REMARK  190  A    between atoms: _438  and  _439
REMARK  191  A    between atoms: _439  and  _440
REMARK  192  A    between atoms: _440  and  _441
REMARK  193  A    between atoms: _441  and  _442
REMARK  194  A    between atoms: _446  and  _448
REMARK  195  A    between atoms: _448  and  _449
REMARK  196  A    between atoms: _448  and  _451
REMARK  197  A    between atoms: _451  and  _452
REMARK  198  A    between atoms: _452  and  _453
REMARK  199  A    between atoms: _453  and  _454
REMARK  200  A    between atoms: _463  and  _465
REMARK  201  A    between atoms: _465  and  _466
REMARK  202  A    between atoms: _465  and  _468
REMARK  203  A    between atoms: _468  and  _469
REMARK  204  A    between atoms: _472  and  _474
REMARK  205  A    between atoms: _474  and  _475
REMARK  206  A    between atoms: _474  and  _477
REMARK  207  A    between atoms: _477  and  _478
REMARK  208  A    between atoms: _481  and  _483
REMARK  209  A    between atoms: _483  and  _484
REMARK  210  A    between atoms: _483  and  _486
REMARK  211  A    between atoms: _486  and  _487
REMARK  212  A    between atoms: _493  and  _495
REMARK  213  A    between atoms: _495  and  _496
REMARK  214  A    between atoms: _495  and  _498
REMARK  215  A    between atoms: _498  and  _499
REMARK  216  A    between atoms: _499  and  _500
REMARK  217  A    between atoms: _503  and  _505
REMARK  218  A    between atoms: _505  and  _506
REMARK  219  A    between atoms: _505  and  _508
REMARK  220  A    between atoms: _508  and  _509
REMARK  221  A    between atoms: _514  and  _516
REMARK  222  A    between atoms: _516  and  _517
REMARK  223  A    between atoms: _520  and  _522
REMARK  224  A    between atoms: _522  and  _523
REMARK  225  A    between atoms: _522  and  _525
REMARK  226  A    between atoms: _525  and  _526
REMARK  227  A    between atoms: _526  and  _527
REMARK  228  A    between atoms: _527  and  _528
REMARK  229  A    between atoms: _528  and  _529
REMARK  230  A    between atoms: _533  and  _535
REMARK  231  A    between atoms: _535  and  _536
REMARK  232  A    between atoms: _535  and  _538
REMARK  233  A    between atoms: _538  and  _539
REMARK  234  A    between atoms: _541  and  _543
REMARK  235  A    between atoms: _543  and  _544
REMARK  236  A    between atoms: _543  and  _546
REMARK  237  A    between atoms: _549  and  _551
REMARK  238  A    between atoms: _551  and  _552
REMARK  239  A    between atoms: _551  and  _554
REMARK  240  A    between atoms: _554  and  _555
REMARK  241  A    between atoms: _560  and  _561
REMARK  242  A    between atoms: _563  and  _565
REMARK  243  A    between atoms: _565  and  _566
REMARK  244  A    between atoms: _565  and  _568
REMARK  245  A    between atoms: _568  and  _569
REMARK  246  A    between atoms: _574  and  _575
REMARK  247  A    between atoms: _577  and  _579
REMARK  248  A    between atoms: _579  and  _580
REMARK  249  A    between atoms: _579  and  _582
REMARK  250  A    between atoms: _582  and  _583
REMARK  251  A    between atoms: _589  and  _591
REMARK  252  A    between atoms: _591  and  _592
REMARK  253  A    between atoms: _591  and  _594
REMARK  254  A    between atoms: _594  and  _595
REMARK  255  A    between atoms: _595  and  _596
REMARK  256  A    between atoms: _598  and  _600
REMARK  257  A    between atoms: _600  and  _601
REMARK  258  A    between atoms: _600  and  _603
REMARK  259  A    between atoms: _603  and  _604
REMARK  260  A    between atoms: _604  and  _605
REMARK  261  A    between atoms: _605  and  _606
REMARK                            x       y       z     vdW  Elec       q    Type
REMARK                         _______ _______ _______ _____ _____    ______ ____
ROOT
ATOM      1  O   HOH     1     -50.610 -16.371  20.750  0.00  0.00    +0.000 OA
ENDROOT
TORSDOF 0
REMARK  Name = ../refined-set-2016/4u0w/4u0w_pocket.pdb
REMARK  261 active torsions:
REMARK  status: ('A' for Active; 'I' for Inactive)
REMARK    1  A    between atoms: _1  and  _3
REMARK    2  A    between atoms: _3  and  _4
REMARK    3  A    between atoms: _3  and  _6
REMARK    4  A    between atoms: _6  and  _7
REMARK    5  A    between atoms: _7  and  _8
REMARK    6  A    between atoms: _13  and  _15
REMARK    7  A    between atoms: _15  and  _16
REMARK    8  A    between atoms: _15  and  _18
REMARK    9  A    between atoms: _18  and  _19
REMARK   10  A    between atoms: _22  and  _24
REMARK   11  A    between atoms: _24  and  _25
REMARK   12  A    between atoms: _24  and  _27
REMARK   13  A    between atoms: _27  and  _28
REMARK   14  A    between atoms: _31  and  _33
REMARK   15  A    between atoms: _33  and  _34
REMARK   16  A    between atoms: _33  and  _36
REMARK   17  A    between atoms: _36  and  _37
REMARK   18  A    between atoms: _40  and  _42
REMARK   19  A    between atoms: _42  and  _43
REMARK   20  A    between atoms: _42  and  _45
REMARK   21  A    between atoms: _45  and  _46
REMARK   22  A    between atoms: _48  and  _50
REMARK   23  A    between atoms: _50  and  _51
REMARK   24  A    between atoms: _50  and  _53
REMARK   25  A    between atoms: _53  and  _54
REMARK   26  A    between atoms: _60  and  _62
REMARK   27  A    between atoms: _62  and  _63
REMARK   28  A    between atoms: _62  and  _65
REMARK   29  A    between atoms: _65  and  _66
REMARK   30  A    between atoms: _69  and  _71
REMARK   31  A    between atoms: _71  and  _72
REMARK   32  A    between atoms: _71  and  _74
REMARK   33  A    between atoms: _74  and  _75
REMARK   34  A    between atoms: _75  and  _76
REMARK   35  A    between atoms: _79  and  _81
REMARK   36  A    between atoms: _81  and  _82
REMARK   37  A    between atoms: _81  and  _84
REMARK   38  A    between atoms: _84  and  _85
REMARK   39  A    between atoms: _88  and  _90
REMARK   40  A    between atoms: _90  and  _91
REMARK   41  A    between atoms: _90  and  _93
REMARK   42  A    between atoms: _93  and  _94
REMARK   43  A    between atoms: _94  and  _95
REMARK   44  A    between atoms: _97  and  _99
REMARK   45  A    between atoms: _99  and  _100
REMARK   46  A    between atoms: _99  and  _102
REMARK   47  A    between atoms: _102  and  _103
REMARK   48  A    between atoms: _103  and  _104
REMARK   49  A    between atoms: _104  and  _105
REMARK   50  A    between atoms: _105  and  _106
REMARK   51  A    between atoms: _111  and  _112
REMARK   52  A    between atoms: _117  and  _119
REMARK   53  A    between atoms: _119  and  _120
REMARK   54  A    between atoms: _122  and  _124
REMARK   55  A    between atoms: _124  and  _125
REMARK   56  A    between atoms: _124  and  _127
REMARK   57  A    between atoms: _127  and  _128
REMARK   58  A    between atoms: _130  and  _132
REMARK   59  A    between atoms: _132  and  _133
REMARK   60  A    between atoms: _132  and  _135
REMARK   61  A    between atoms: _135  and  _136
REMARK   62  A    between atoms: _139  and  _141
REMARK   63  A    between atoms: _141  and  _142
REMARK   64  A    between atoms: _141  and  _144
REMARK   65  A    between atoms: _144  and  _145
REMARK   66  A    between atoms: _145  and  _146
REMARK   67  A    between atoms: _146  and  _147
REMARK   68  A    between atoms: _156  and  _158
REMARK   69  A    between atoms: _158  and  _159
REMARK   70  A    between atoms: _158  and  _161
REMARK   71  A    between atoms: _161  and  _162
REMARK   72  A    between atoms: _162  and  _163
REMARK   73  A    between atoms: _163  and  _164
REMARK   74  A    between atoms: _173  and  _175
REMARK   75  A    between atoms: _175  and  _176
REMARK   76  A    between atoms: _179  and  _181
REMARK   77  A    between atoms: _181  and  _182
REMARK   78  A    between atoms: _181  and  _184
REMARK   79  A    between atoms: _184  and  _185
REMARK   80  A    between atoms: _188  and  _190
REMARK   81  A    between atoms: _190  and  _191
REMARK   82  A    between atoms: _190  and  _193
REMARK   83  A    between atoms: _193  and  _194
REMARK   84  A    between atoms: _194  and  _195
REMARK   85  A    between atoms: _198  and  _200
REMARK   86  A    between atoms: _200  and  _201
REMARK   87  A    between atoms: _200  and  _203
REMARK   88  A    between atoms: _203  and  _204
REMARK   89  A    between atoms: _206  and  _208
REMARK   90  A    between atoms: _208  and  _209
REMARK   91  A    between atoms: _208  and  _211
REMARK   92  A    between atoms: _211  and  _212
REMARK   93  A    between atoms: _214  and  _216
REMARK   94  A    between atoms: _216  and  _217
REMARK   95  A    between atoms: _216  and  _219
REMARK   96  A    between atoms: _219  and  _220
REMARK   97  A    between atoms: _225  and  _227
REMARK   98  A    between atoms: _227  and  _228
REMARK   99  A    between atoms: _227  and  _230
REMARK  100  A    between atoms: _230  and  _231
REMARK  101  A    between atoms: _234  and  _236
REMARK  102  A    between atoms: _236  and  _237
REMARK  103  A    between atoms: _236  and  _239
REMARK  104  A    between atoms: _239  and  _240
REMARK  105  A    between atoms: _245  and  _247
REMARK  106  A    between atoms: _247  and  _248
REMARK  107  A    between atoms: _247  and  _250
REMARK  108  A    between atoms: _250  and  _251
REMARK  109  A    between atoms: _257  and  _259
REMARK  110  A    between atoms: _259  and  _260
REMARK  111  A    between atoms: _259  and  _262
REMARK  112  A    between atoms: _262  and  _263
REMARK  113  A    between atoms: _263  and  _264
REMARK  114  A    between atoms: _269  and  _271
REMARK  115  A    between atoms: _271  and  _272
REMARK  116  A    between atoms: _271  and  _274
REMARK  117  A    between atoms: _274  and  _275
REMARK  118  A    between atoms: _277  and  _279
REMARK  119  A    between atoms: _279  and  _280
REMARK  120  A    between atoms: _279  and  _282
REMARK  121  A    between atoms: _282  and  _283
REMARK  122  A    between atoms: _285  and  _287
REMARK  123  A    between atoms: _287  and  _288
REMARK  124  A    between atoms: _287  and  _290
REMARK  125  A    between atoms: _290  and  _291
REMARK  126  A    between atoms: _294  and  _296
REMARK  127  A    between atoms: _296  and  _297
REMARK  128  A    between atoms: _296  and  _299
REMARK  129  A    between atoms: _299  and  _300
REMARK  130  A    between atoms: _305  and  _306
REMARK  131  A    between atoms: _308  and  _310
REMARK  132  A    between atoms: _310  and  _311
REMARK  133  A    between atoms: _310  and  _313
REMARK  134  A    between atoms: _313  and  _314
REMARK  135  A    between atoms: _317  and  _319
REMARK  136  A    between atoms: _319  and  _320
REMARK  137  A    between atoms: _319  and  _322
REMARK  138  A    between atoms: _322  and  _323
REMARK  139  A    between atoms: _328  and  _330
REMARK  140  A    between atoms: _330  and  _331
REMARK  141  A    between atoms: _330  and  _333
REMARK  142  A    between atoms: _333  and  _334
REMARK  143  A    between atoms: _337  and  _339
REMARK  144  A    between atoms: _339  and  _340
REMARK  145  A    between atoms: _339  and  _342
REMARK  146  A    between atoms: _342  and  _343
REMARK  147  A    between atoms: _343  and  _344
REMARK  148  A    between atoms: _347  and  _349
REMARK  149  A    between atoms: _349  and  _350
REMARK  150  A    between atoms: _349  and  _352
REMARK  151  A    between atoms: _352  and  _353
REMARK  152  A    between atoms: _356  and  _358
REMARK  153  A    between atoms: _358  and  _359
REMARK  154  A    between atoms: _362  and  _364
REMARK  155  A    between atoms: _364  and  _365
REMARK  156  A    between atoms: _364  and  _367
REMARK  157  A    between atoms: _367  and  _368
REMARK  158  A    between atoms: _368  and  _369
REMARK  159  A    between atoms: _369  and  _370
REMARK  160  A    between atoms: _370  and  _371
REMARK  161  A    between atoms: _375  and  _377
REMARK  162  A    between atoms: _377  and  _378
REMARK  163  A    between atoms: _377  and  _380
REMARK  164  A    between atoms: _380  and  _381
REMARK  165  A    between atoms: _381  and  _382
REMARK  166  A    between atoms: _387  and  _389
REMARK  167  A    between atoms: _389  and  _390
REMARK  168  A    between atoms: _389  and  _392
REMARK  169  A    between atoms: _392  and  _393
REMARK  170  A    between atoms: _393  and  _394
REMARK  171  A    between atoms: _397  and  _399
REMARK  172  A    between atoms: _399  and  _400
REMARK  173  A    between atoms: _399  and  _402
REMARK  174  A    between atoms: _402  and  _403
REMARK  175  A    between atoms: _406  and  _408
REMARK  176  A    between atoms: _408  and  _409
REMARK  177  A    between atoms: _408  and  _411
REMARK  178  A    between atoms: _411  and  _412
REMARK  179  A    between atoms: _415  and  _417
REMARK  180  A    between atoms: _417  and  _418
REMARK  181  A    between atoms: _417  and  _420
REMARK  182  A    between atoms: _420  and  _421
REMARK  183  A    between atoms: _424  and  _426
REMARK  184  A    between atoms: _426  and  _427
REMARK  185  A    between atoms: _426  and  _429
REMARK  186  A    between atoms: _429  and  _430
REMARK  187  A    between atoms: _433  and  _435
REMARK  188  A    between atoms: _435  and  _436
REMARK  189  A    between atoms: _435  and  _438
REMARK  190  A    between atoms: _438  and  _439
REMARK  191  A    between atoms: _439  and  _440
REMARK  192  A    between atoms: _440  and  _441
REMARK  193  A    between atoms: _441  and  _442
REMARK  194  A    between atoms: _446  and  _448
REMARK  195  A    between atoms: _448  and  _449
REMARK  196  A    between atoms: _448  and  _451
REMARK  197  A    between atoms: _451  and  _452
REMARK  198  A    between atoms: _452  and  _453
REMARK  199  A    between atoms: _453  and  _454
REMARK  200  A    between atoms: _463  and  _465
REMARK  201  A    between atoms: _465  and  _466
REMARK  202  A    between atoms: _465  and  _468
REMARK  203  A    between atoms: _468  and  _469
REMARK  204  A    between atoms: _472  and  _474
REMARK  205  A    between atoms: _474  and  _475
REMARK  206  A    between atoms: _474  and  _477
REMARK  207  A    between atoms: _477  and  _478
REMARK  208  A    between atoms: _481  and  _483
REMARK  209  A    between atoms: _483  and  _484
REMARK  210  A    between atoms: _483  and  _486
REMARK  211  A    between atoms: _486  and  _487
REMARK  212  A    between atoms: _493  and  _495
REMARK  213  A    between atoms: _495  and  _496
REMARK  214  A    between atoms: _495  and  _498
REMARK  215  A    between atoms: _498  and  _499
REMARK  216  A    between atoms: _499  and  _500
REMARK  217  A    between atoms: _503  and  _505
REMARK  218  A    between atoms: _505  and  _506
REMARK  219  A    between atoms: _505  and  _508
REMARK  220  A    between atoms: _508  and  _509
REMARK  221  A    between atoms: _514  and  _516
REMARK  222  A    between atoms: _516  and  _517
REMARK  223  A    between atoms: _520  and  _522
REMARK  224  A    between atoms: _522  and  _523
REMARK  225  A    between atoms: _522  and  _525
REMARK  226  A    between atoms: _525  and  _526
REMARK  227  A    between atoms: _526  and  _527
REMARK  228  A    between atoms: _527  and  _528
REMARK  229  A    between atoms: _528  and  _529
REMARK  230  A    between atoms: _533  and  _535
REMARK  231  A    between atoms: _535  and  _536
REMARK  232  A    between atoms: _535  and  _538
REMARK  233  A    between atoms: _538  and  _539
REMARK  234  A    between atoms: _541  and  _543
REMARK  235  A    between atoms: _543  and  _544
REMARK  236  A    between atoms: _543  and  _546
REMARK  237  A    between atoms: _549  and  _551
REMARK  238  A    between atoms: _551  and  _552
REMARK  239  A    between atoms: _551  and  _554
REMARK  240  A    between atoms: _554  and  _555
REMARK  241  A    between atoms: _560  and  _561
REMARK  242  A    between atoms: _563  and  _565
REMARK  243  A    between atoms: _565  and  _566
REMARK  244  A    between atoms: _565  and  _568
REMARK  245  A    between atoms: _568  and  _569
REMARK  246  A    between atoms: _574  and  _575
REMARK  247  A    between atoms: _577  and  _579
REMARK  248  A    between atoms: _579  and  _580
REMARK  249  A    between atoms: _579  and  _582
REMARK  250  A    between atoms: _582  and  _583
REMARK  251  A    between atoms: _589  and  _591
REMARK  252  A    between atoms: _591  and  _592
REMARK  253  A    between atoms: _591  and  _594
REMARK  254  A    between atoms: _594  and  _595
REMARK  255  A    between atoms: _595  and  _596
REMARK  256  A    between atoms: _598  and  _600
REMARK  257  A    between atoms: _600  and  _601
REMARK  258  A    between atoms: _600  and  _603
REMARK  259  A    between atoms: _603  and  _604
REMARK  260  A    between atoms: _604  and  _605
REMARK  261  A    between atoms: _605  and  _606
REMARK                            x       y       z     vdW  Elec       q    Type
REMARK                         _______ _______ _______ _____ _____    ______ ____
ROOT
ATOM      1  O   HOH     1     -50.801 -14.099  28.102  0.00  0.00    +0.000 OA
ENDROOT
TORSDOF 0
REMARK  Name = ../refined-set-2016/4u0w/4u0w_pocket.pdb
REMARK  261 active torsions:
REMARK  status: ('A' for Active; 'I' for Inactive)
REMARK    1  A    between atoms: _1  and  _3
REMARK    2  A    between atoms: _3  and  _4
REMARK    3  A    between atoms: _3  and  _6
REMARK    4  A    between atoms: _6  and  _7
REMARK    5  A    between atoms: _7  and  _8
REMARK    6  A    between atoms: _13  and  _15
REMARK    7  A    between atoms: _15  and  _16
REMARK    8  A    between atoms: _15  and  _18
REMARK    9  A    between atoms: _18  and  _19
REMARK   10  A    between atoms: _22  and  _24
REMARK   11  A    between atoms: _24  and  _25
REMARK   12  A    between atoms: _24  and  _27
REMARK   13  A    between atoms: _27  and  _28
REMARK   14  A    between atoms: _31  and  _33
REMARK   15  A    between atoms: _33  and  _34
REMARK   16  A    between atoms: _33  and  _36
REMARK   17  A    between atoms: _36  and  _37
REMARK   18  A    between atoms: _40  and  _42
REMARK   19  A    between atoms: _42  and  _43
REMARK   20  A    between atoms: _42  and  _45
REMARK   21  A    between atoms: _45  and  _46
REMARK   22  A    between atoms: _48  and  _50
REMARK   23  A    between atoms: _50  and  _51
REMARK   24  A    between atoms: _50  and  _53
REMARK   25  A    between atoms: _53  and  _54
REMARK   26  A    between atoms: _60  and  _62
REMARK   27  A    between atoms: _62  and  _63
REMARK   28  A    between atoms: _62  and  _65
REMARK   29  A    between atoms: _65  and  _66
REMARK   30  A    between atoms: _69  and  _71
REMARK   31  A    between atoms: _71  and  _72
REMARK   32  A    between atoms: _71  and  _74
REMARK   33  A    between atoms: _74  and  _75
REMARK   34  A    between atoms: _75  and  _76
REMARK   35  A    between atoms: _79  and  _81
REMARK   36  A    between atoms: _81  and  _82
REMARK   37  A    between atoms: _81  and  _84
REMARK   38  A    between atoms: _84  and  _85
REMARK   39  A    between atoms: _88  and  _90
REMARK   40  A    between atoms: _90  and  _91
REMARK   41  A    between atoms: _90  and  _93
REMARK   42  A    between atoms: _93  and  _94
REMARK   43  A    between atoms: _94  and  _95
REMARK   44  A    between atoms: _97  and  _99
REMARK   45  A    between atoms: _99  and  _100
REMARK   46  A    between atoms: _99  and  _102
REMARK   47  A    between atoms: _102  and  _103
REMARK   48  A    between atoms: _103  and  _104
REMARK   49  A    between atoms: _104  and  _105
REMARK   50  A    between atoms: _105  and  _106
REMARK   51  A    between atoms: _111  and  _112
REMARK   52  A    between atoms: _117  and  _119
REMARK   53  A    between atoms: _119  and  _120
REMARK   54  A    between atoms: _122  and  _124
REMARK   55  A    between atoms: _124  and  _125
REMARK   56  A    between atoms: _124  and  _127
REMARK   57  A    between atoms: _127  and  _128
REMARK   58  A    between atoms: _130  and  _132
REMARK   59  A    between atoms: _132  and  _133
REMARK   60  A    between atoms: _132  and  _135
REMARK   61  A    between atoms: _135  and  _136
REMARK   62  A    between atoms: _139  and  _141
REMARK   63  A    between atoms: _141  and  _142
REMARK   64  A    between atoms: _141  and  _144
REMARK   65  A    between atoms: _144  and  _145
REMARK   66  A    between atoms: _145  and  _146
REMARK   67  A    between atoms: _146  and  _147
REMARK   68  A    between atoms: _156  and  _158
REMARK   69  A    between atoms: _158  and  _159
REMARK   70  A    between atoms: _158  and  _161
REMARK   71  A    between atoms: _161  and  _162
REMARK   72  A    between atoms: _162  and  _163
REMARK   73  A    between atoms: _163  and  _164
REMARK   74  A    between atoms: _173  and  _175
REMARK   75  A    between atoms: _175  and  _176
REMARK   76  A    between atoms: _179  and  _181
REMARK   77  A    between atoms: _181  and  _182
REMARK   78  A    between atoms: _181  and  _184
REMARK   79  A    between atoms: _184  and  _185
REMARK   80  A    between atoms: _188  and  _190
REMARK   81  A    between atoms: _190  and  _191
REMARK   82  A    between atoms: _190  and  _193
REMARK   83  A    between atoms: _193  and  _194
REMARK   84  A    between atoms: _194  and  _195
REMARK   85  A    between atoms: _198  and  _200
REMARK   86  A    between atoms: _200  and  _201
REMARK   87  A    between atoms: _200  and  _203
REMARK   88  A    between atoms: _203  and  _204
REMARK   89  A    between atoms: _206  and  _208
REMARK   90  A    between atoms: _208  and  _209
REMARK   91  A    between atoms: _208  and  _211
REMARK   92  A    between atoms: _211  and  _212
REMARK   93  A    between atoms: _214  and  _216
REMARK   94  A    between atoms: _216  and  _217
REMARK   95  A    between atoms: _216  and  _219
REMARK   96  A    between atoms: _219  and  _220
REMARK   97  A    between atoms: _225  and  _227
REMARK   98  A    between atoms: _227  and  _228
REMARK   99  A    between atoms: _227  and  _230
REMARK  100  A    between atoms: _230  and  _231
REMARK  101  A    between atoms: _234  and  _236
REMARK  102  A    between atoms: _236  and  _237
REMARK  103  A    between atoms: _236  and  _239
REMARK  104  A    between atoms: _239  and  _240
REMARK  105  A    between atoms: _245  and  _247
REMARK  106  A    between atoms: _247  and  _248
REMARK  107  A    between atoms: _247  and  _250
REMARK  108  A    between atoms: _250  and  _251
REMARK  109  A    between atoms: _257  and  _259
REMARK  110  A    between atoms: _259  and  _260
REMARK  111  A    between atoms: _259  and  _262
REMARK  112  A    between atoms: _262  and  _263
REMARK  113  A    between atoms: _263  and  _264
REMARK  114  A    between atoms: _269  and  _271
REMARK  115  A    between atoms: _271  and  _272
REMARK  116  A    between atoms: _271  and  _274
REMARK  117  A    between atoms: _274  and  _275
REMARK  118  A    between atoms: _277  and  _279
REMARK  119  A    between atoms: _279  and  _280
REMARK  120  A    between atoms: _279  and  _282
REMARK  121  A    between atoms: _282  and  _283
REMARK  122  A    between atoms: _285  and  _287
REMARK  123  A    between atoms: _287  and  _288
REMARK  124  A    between atoms: _287  and  _290
REMARK  125  A    between atoms: _290  and  _291
REMARK  126  A    between atoms: _294  and  _296
REMARK  127  A    between atoms: _296  and  _297
REMARK  128  A    between atoms: _296  and  _299
REMARK  129  A    between atoms: _299  and  _300
REMARK  130  A    between atoms: _305  and  _306
REMARK  131  A    between atoms: _308  and  _310
REMARK  132  A    between atoms: _310  and  _311
REMARK  133  A    between atoms: _310  and  _313
REMARK  134  A    between atoms: _313  and  _314
REMARK  135  A    between atoms: _317  and  _319
REMARK  136  A    between atoms: _319  and  _320
REMARK  137  A    between atoms: _319  and  _322
REMARK  138  A    between atoms: _322  and  _323
REMARK  139  A    between atoms: _328  and  _330
REMARK  140  A    between atoms: _330  and  _331
REMARK  141  A    between atoms: _330  and  _333
REMARK  142  A    between atoms: _333  and  _334
REMARK  143  A    between atoms: _337  and  _339
REMARK  144  A    between atoms: _339  and  _340
REMARK  145  A    between atoms: _339  and  _342
REMARK  146  A    between atoms: _342  and  _343
REMARK  147  A    between atoms: _343  and  _344
REMARK  148  A    between atoms: _347  and  _349
REMARK  149  A    between atoms: _349  and  _350
REMARK  150  A    between atoms: _349  and  _352
REMARK  151  A    between atoms: _352  and  _353
REMARK  152  A    between atoms: _356  and  _358
REMARK  153  A    between atoms: _358  and  _359
REMARK  154  A    between atoms: _362  and  _364
REMARK  155  A    between atoms: _364  and  _365
REMARK  156  A    between atoms: _364  and  _367
REMARK  157  A    between atoms: _367  and  _368
REMARK  158  A    between atoms: _368  and  _369
REMARK  159  A    between atoms: _369  and  _370
REMARK  160  A    between atoms: _370  and  _371
REMARK  161  A    between atoms: _375  and  _377
REMARK  162  A    between atoms: _377  and  _378
REMARK  163  A    between atoms: _377  and  _380
REMARK  164  A    between atoms: _380  and  _381
REMARK  165  A    between atoms: _381  and  _382
REMARK  166  A    between atoms: _387  and  _389
REMARK  167  A    between atoms: _389  and  _390
REMARK  168  A    between atoms: _389  and  _392
REMARK  169  A    between atoms: _392  and  _393
REMARK  170  A    between atoms: _393  and  _394
REMARK  171  A    between atoms: _397  and  _399
REMARK  172  A    between atoms: _399  and  _400
REMARK  173  A    between atoms: _399  and  _402
REMARK  174  A    between atoms: _402  and  _403
REMARK  175  A    between atoms: _406  and  _408
REMARK  176  A    between atoms: _408  and  _409
REMARK  177  A    between atoms: _408  and  _411
REMARK  178  A    between atoms: _411  and  _412
REMARK  179  A    between atoms: _415  and  _417
REMARK  180  A    between atoms: _417  and  _418
REMARK  181  A    between atoms: _417  and  _420
REMARK  182  A    between atoms: _420  and  _421
REMARK  183  A    between atoms: _424  and  _426
REMARK  184  A    between atoms: _426  and  _427
REMARK  185  A    between atoms: _426  and  _429
REMARK  186  A    between atoms: _429  and  _430
REMARK  187  A    between atoms: _433  and  _435
REMARK  188  A    between atoms: _435  and  _436
REMARK  189  A    between atoms: _435  and  _438
REMARK  190  A    between atoms: _438  and  _439
REMARK  191  A    between atoms: _439  and  _440
REMARK  192  A    between atoms: _440  and  _441
REMARK  193  A    between atoms: _441  and  _442
REMARK  194  A    between atoms: _446  and  _448
REMARK  195  A    between atoms: _448  and  _449
REMARK  196  A    between atoms: _448  and  _451
REMARK  197  A    between atoms: _451  and  _452
REMARK  198  A    between atoms: _452  and  _453
REMARK  199  A    between atoms: _453  and  _454
REMARK  200  A    between atoms: _463  and  _465
REMARK  201  A    between atoms: _465  and  _466
REMARK  202  A    between atoms: _465  and  _468
REMARK  203  A    between atoms: _468  and  _469
REMARK  204  A    between atoms: _472  and  _474
REMARK  205  A    between atoms: _474  and  _475
REMARK  206  A    between atoms: _474  and  _477
REMARK  207  A    between atoms: _477  and  _478
REMARK  208  A    between atoms: _481  and  _483
REMARK  209  A    between atoms: _483  and  _484
REMARK  210  A    between atoms: _483  and  _486
REMARK  211  A    between atoms: _486  and  _487
REMARK  212  A    between atoms: _493  and  _495
REMARK  213  A    between atoms: _495  and  _496
REMARK  214  A    between atoms: _495  and  _498
REMARK  215  A    between atoms: _498  and  _499
REMARK  216  A    between atoms: _499  and  _500
REMARK  217  A    between atoms: _503  and  _505
REMARK  218  A    between atoms: _505  and  _506
REMARK  219  A    between atoms: _505  and  _508
REMARK  220  A    between atoms: _508  and  _509
REMARK  221  A    between atoms: _514  and  _516
REMARK  222  A    between atoms: _516  and  _517
REMARK  223  A    between atoms: _520  and  _522
REMARK  224  A    between atoms: _522  and  _523
REMARK  225  A    between atoms: _522  and  _525
REMARK  226  A    between atoms: _525  and  _526
REMARK  227  A    between atoms: _526  and  _527
REMARK  228  A    between atoms: _527  and  _528
REMARK  229  A    between atoms: _528  and  _529
REMARK  230  A    between atoms: _533  and  _535
REMARK  231  A    between atoms: _535  and  _536
REMARK  232  A    between atoms: _535  and  _538
REMARK  233  A    between atoms: _538  and  _539
REMARK  234  A    between atoms: _541  and  _543
REMARK  235  A    between atoms: _543  and  _544
REMARK  236  A    between atoms: _543  and  _546
REMARK  237  A    between atoms: _549  and  _551
REMARK  238  A    between atoms: _551  and  _552
REMARK  239  A    between atoms: _551  and  _554
REMARK  240  A    between atoms: _554  and  _555
REMARK  241  A    between atoms: _560  and  _561
REMARK  242  A    between atoms: _563  and  _565
REMARK  243  A    between atoms: _565  and  _566
REMARK  244  A    between atoms: _565  and  _568
REMARK  245  A    between atoms: _568  and  _569
REMARK  246  A    between atoms: _574  and  _575
REMARK  247  A    between atoms: _577  and  _579
REMARK  248  A    between atoms: _579  and  _580
REMARK  249  A    between atoms: _579  and  _582
REMARK  250  A    between atoms: _582  and  _583
REMARK  251  A    between atoms: _589  and  _591
REMARK  252  A    between atoms: _591  and  _592
REMARK  253  A    between atoms: _591  and  _594
REMARK  254  A    between atoms: _594  and  _595
REMARK  255  A    between atoms: _595  and  _596
REMARK  256  A    between atoms: _598  and  _600
REMARK  257  A    between atoms: _600  and  _601
REMARK  258  A    between atoms: _600  and  _603
REMARK  259  A    between atoms: _603  and  _604
REMARK  260  A    between atoms: _604  and  _605
REMARK  261  A    between atoms: _605  and  _606
REMARK                            x       y       z     vdW  Elec       q    Type
REMARK                         _______ _______ _______ _____ _____    ______ ____
ROOT
ATOM      1  O   HOH     1     -41.585  -7.293  28.737  0.00  0.00    +0.000 OA
ENDROOT
TORSDOF 0
REMARK  Name = ../refined-set-2016/4u0w/4u0w_pocket.pdb
REMARK  261 active torsions:
REMARK  status: ('A' for Active; 'I' for Inactive)
REMARK    1  A    between atoms: _1  and  _3
REMARK    2  A    between atoms: _3  and  _4
REMARK    3  A    between atoms: _3  and  _6
REMARK    4  A    between atoms: _6  and  _7
REMARK    5  A    between atoms: _7  and  _8
REMARK    6  A    between atoms: _13  and  _15
REMARK    7  A    between atoms: _15  and  _16
REMARK    8  A    between atoms: _15  and  _18
REMARK    9  A    between atoms: _18  and  _19
REMARK   10  A    between atoms: _22  and  _24
REMARK   11  A    between atoms: _24  and  _25
REMARK   12  A    between atoms: _24  and  _27
REMARK   13  A    between atoms: _27  and  _28
REMARK   14  A    between atoms: _31  and  _33
REMARK   15  A    between atoms: _33  and  _34
REMARK   16  A    between atoms: _33  and  _36
REMARK   17  A    between atoms: _36  and  _37
REMARK   18  A    between atoms: _40  and  _42
REMARK   19  A    between atoms: _42  and  _43
REMARK   20  A    between atoms: _42  and  _45
REMARK   21  A    between atoms: _45  and  _46
REMARK   22  A    between atoms: _48  and  _50
REMARK   23  A    between atoms: _50  and  _51
REMARK   24  A    between atoms: _50  and  _53
REMARK   25  A    between atoms: _53  and  _54
REMARK   26  A    between atoms: _60  and  _62
REMARK   27  A    between atoms: _62  and  _63
REMARK   28  A    between atoms: _62  and  _65
REMARK   29  A    between atoms: _65  and  _66
REMARK   30  A    between atoms: _69  and  _71
REMARK   31  A    between atoms: _71  and  _72
REMARK   32  A    between atoms: _71  and  _74
REMARK   33  A    between atoms: _74  and  _75
REMARK   34  A    between atoms: _75  and  _76
REMARK   35  A    between atoms: _79  and  _81
REMARK   36  A    between atoms: _81  and  _82
REMARK   37  A    between atoms: _81  and  _84
REMARK   38  A    between atoms: _84  and  _85
REMARK   39  A    between atoms: _88  and  _90
REMARK   40  A    between atoms: _90  and  _91
REMARK   41  A    between atoms: _90  and  _93
REMARK   42  A    between atoms: _93  and  _94
REMARK   43  A    between atoms: _94  and  _95
REMARK   44  A    between atoms: _97  and  _99
REMARK   45  A    between atoms: _99  and  _100
REMARK   46  A    between atoms: _99  and  _102
REMARK   47  A    between atoms: _102  and  _103
REMARK   48  A    between atoms: _103  and  _104
REMARK   49  A    between atoms: _104  and  _105
REMARK   50  A    between atoms: _105  and  _106
REMARK   51  A    between atoms: _111  and  _112
REMARK   52  A    between atoms: _117  and  _119
REMARK   53  A    between atoms: _119  and  _120
REMARK   54  A    between atoms: _122  and  _124
REMARK   55  A    between atoms: _124  and  _125
REMARK   56  A    between atoms: _124  and  _127
REMARK   57  A    between atoms: _127  and  _128
REMARK   58  A    between atoms: _130  and  _132
REMARK   59  A    between atoms: _132  and  _133
REMARK   60  A    between atoms: _132  and  _135
REMARK   61  A    between atoms: _135  and  _136
REMARK   62  A    between atoms: _139  and  _141
REMARK   63  A    between atoms: _141  and  _142
REMARK   64  A    between atoms: _141  and  _144
REMARK   65  A    between atoms: _144  and  _145
REMARK   66  A    between atoms: _145  and  _146
REMARK   67  A    between atoms: _146  and  _147
REMARK   68  A    between atoms: _156  and  _158
REMARK   69  A    between atoms: _158  and  _159
REMARK   70  A    between atoms: _158  and  _161
REMARK   71  A    between atoms: _161  and  _162
REMARK   72  A    between atoms: _162  and  _163
REMARK   73  A    between atoms: _163  and  _164
REMARK   74  A    between atoms: _173  and  _175
REMARK   75  A    between atoms: _175  and  _176
REMARK   76  A    between atoms: _179  and  _181
REMARK   77  A    between atoms: _181  and  _182
REMARK   78  A    between atoms: _181  and  _184
REMARK   79  A    between atoms: _184  and  _185
REMARK   80  A    between atoms: _188  and  _190
REMARK   81  A    between atoms: _190  and  _191
REMARK   82  A    between atoms: _190  and  _193
REMARK   83  A    between atoms: _193  and  _194
REMARK   84  A    between atoms: _194  and  _195
REMARK   85  A    between atoms: _198  and  _200
REMARK   86  A    between atoms: _200  and  _201
REMARK   87  A    between atoms: _200  and  _203
REMARK   88  A    between atoms: _203  and  _204
REMARK   89  A    between atoms: _206  and  _208
REMARK   90  A    between atoms: _208  and  _209
REMARK   91  A    between atoms: _208  and  _211
REMARK   92  A    between atoms: _211  and  _212
REMARK   93  A    between atoms: _214  and  _216
REMARK   94  A    between atoms: _216  and  _217
REMARK   95  A    between atoms: _216  and  _219
REMARK   96  A    between atoms: _219  and  _220
REMARK   97  A    between atoms: _225  and  _227
REMARK   98  A    between atoms: _227  and  _228
REMARK   99  A    between atoms: _227  and  _230
REMARK  100  A    between atoms: _230  and  _231
REMARK  101  A    between atoms: _234  and  _236
REMARK  102  A    between atoms: _236  and  _237
REMARK  103  A    between atoms: _236  and  _239
REMARK  104  A    between atoms: _239  and  _240
REMARK  105  A    between atoms: _245  and  _247
REMARK  106  A    between atoms: _247  and  _248
REMARK  107  A    between atoms: _247  and  _250
REMARK  108  A    between atoms: _250  and  _251
REMARK  109  A    between atoms: _257  and  _259
REMARK  110  A    between atoms: _259  and  _260
REMARK  111  A    between atoms: _259  and  _262
REMARK  112  A    between atoms: _262  and  _263
REMARK  113  A    between atoms: _263  and  _264
REMARK  114  A    between atoms: _269  and  _271
REMARK  115  A    between atoms: _271  and  _272
REMARK  116  A    between atoms: _271  and  _274
REMARK  117  A    between atoms: _274  and  _275
REMARK  118  A    between atoms: _277  and  _279
REMARK  119  A    between atoms: _279  and  _280
REMARK  120  A    between atoms: _279  and  _282
REMARK  121  A    between atoms: _282  and  _283
REMARK  122  A    between atoms: _285  and  _287
REMARK  123  A    between atoms: _287  and  _288
REMARK  124  A    between atoms: _287  and  _290
REMARK  125  A    between atoms: _290  and  _291
REMARK  126  A    between atoms: _294  and  _296
REMARK  127  A    between atoms: _296  and  _297
REMARK  128  A    between atoms: _296  and  _299
REMARK  129  A    between atoms: _299  and  _300
REMARK  130  A    between atoms: _305  and  _306
REMARK  131  A    between atoms: _308  and  _310
REMARK  132  A    between atoms: _310  and  _311
REMARK  133  A    between atoms: _310  and  _313
REMARK  134  A    between atoms: _313  and  _314
REMARK  135  A    between atoms: _317  and  _319
REMARK  136  A    between atoms: _319  and  _320
REMARK  137  A    between atoms: _319  and  _322
REMARK  138  A    between atoms: _322  and  _323
REMARK  139  A    between atoms: _328  and  _330
REMARK  140  A    between atoms: _330  and  _331
REMARK  141  A    between atoms: _330  and  _333
REMARK  142  A    between atoms: _333  and  _334
REMARK  143  A    between atoms: _337  and  _339
REMARK  144  A    between atoms: _339  and  _340
REMARK  145  A    between atoms: _339  and  _342
REMARK  146  A    between atoms: _342  and  _343
REMARK  147  A    between atoms: _343  and  _344
REMARK  148  A    between atoms: _347  and  _349
REMARK  149  A    between atoms: _349  and  _350
REMARK  150  A    between atoms: _349  and  _352
REMARK  151  A    between atoms: _352  and  _353
REMARK  152  A    between atoms: _356  and  _358
REMARK  153  A    between atoms: _358  and  _359
REMARK  154  A    between atoms: _362  and  _364
REMARK  155  A    between atoms: _364  and  _365
REMARK  156  A    between atoms: _364  and  _367
REMARK  157  A    between atoms: _367  and  _368
REMARK  158  A    between atoms: _368  and  _369
REMARK  159  A    between atoms: _369  and  _370
REMARK  160  A    between atoms: _370  and  _371
REMARK  161  A    between atoms: _375  and  _377
REMARK  162  A    between atoms: _377  and  _378
REMARK  163  A    between atoms: _377  and  _380
REMARK  164  A    between atoms: _380  and  _381
REMARK  165  A    between atoms: _381  and  _382
REMARK  166  A    between atoms: _387  and  _389
REMARK  167  A    between atoms: _389  and  _390
REMARK  168  A    between atoms: _389  and  _392
REMARK  169  A    between atoms: _392  and  _393
REMARK  170  A    between atoms: _393  and  _394
REMARK  171  A    between atoms: _397  and  _399
REMARK  172  A    between atoms: _399  and  _400
REMARK  173  A    between atoms: _399  and  _402
REMARK  174  A    between atoms: _402  and  _403
REMARK  175  A    between atoms: _406  and  _408
REMARK  176  A    between atoms: _408  and  _409
REMARK  177  A    between atoms: _408  and  _411
REMARK  178  A    between atoms: _411  and  _412
REMARK  179  A    between atoms: _415  and  _417
REMARK  180  A    between atoms: _417  and  _418
REMARK  181  A    between atoms: _417  and  _420
REMARK  182  A    between atoms: _420  and  _421
REMARK  183  A    between atoms: _424  and  _426
REMARK  184  A    between atoms: _426  and  _427
REMARK  185  A    between atoms: _426  and  _429
REMARK  186  A    between atoms: _429  and  _430
REMARK  187  A    between atoms: _433  and  _435
REMARK  188  A    between atoms: _435  and  _436
REMARK  189  A    between atoms: _435  and  _438
REMARK  190  A    between atoms: _438  and  _439
REMARK  191  A    between atoms: _439  and  _440
REMARK  192  A    between atoms: _440  and  _441
REMARK  193  A    between atoms: _441  and  _442
REMARK  194  A    between atoms: _446  and  _448
REMARK  195  A    between atoms: _448  and  _449
REMARK  196  A    between atoms: _448  and  _451
REMARK  197  A    between atoms: _451  and  _452
REMARK  198  A    between atoms: _452  and  _453
REMARK  199  A    between atoms: _453  and  _454
REMARK  200  A    between atoms: _463  and  _465
REMARK  201  A    between atoms: _465  and  _466
REMARK  202  A    between atoms: _465  and  _468
REMARK  203  A    between atoms: _468  and  _469
REMARK  204  A    between atoms: _472  and  _474
REMARK  205  A    between atoms: _474  and  _475
REMARK  206  A    between atoms: _474  and  _477
REMARK  207  A    between atoms: _477  and  _478
REMARK  208  A    between atoms: _481  and  _483
REMARK  209  A    between atoms: _483  and  _484
REMARK  210  A    between atoms: _483  and  _486
REMARK  211  A    between atoms: _486  and  _487
REMARK  212  A    between atoms: _493  and  _495
REMARK  213  A    between atoms: _495  and  _496
REMARK  214  A    between atoms: _495  and  _498
REMARK  215  A    between atoms: _498  and  _499
REMARK  216  A    between atoms: _499  and  _500
REMARK  217  A    between atoms: _503  and  _505
REMARK  218  A    between atoms: _505  and  _506
REMARK  219  A    between atoms: _505  and  _508
REMARK  220  A    between atoms: _508  and  _509
REMARK  221  A    between atoms: _514  and  _516
REMARK  222  A    between atoms: _516  and  _517
REMARK  223  A    between atoms: _520  and  _522
REMARK  224  A    between atoms: _522  and  _523
REMARK  225  A    between atoms: _522  and  _525
REMARK  226  A    between atoms: _525  and  _526
REMARK  227  A    between atoms: _526  and  _527
REMARK  228  A    between atoms: _527  and  _528
REMARK  229  A    between atoms: _528  and  _529
REMARK  230  A    between atoms: _533  and  _535
REMARK  231  A    between atoms: _535  and  _536
REMARK  232  A    between atoms: _535  and  _538
REMARK  233  A    between atoms: _538  and  _539
REMARK  234  A    between atoms: _541  and  _543
REMARK  235  A    between atoms: _543  and  _544
REMARK  236  A    between atoms: _543  and  _546
REMARK  237  A    between atoms: _549  and  _551
REMARK  238  A    between atoms: _551  and  _552
REMARK  239  A    between atoms: _551  and  _554
REMARK  240  A    between atoms: _554  and  _555
REMARK  241  A    between atoms: _560  and  _561
REMARK  242  A    between atoms: _563  and  _565
REMARK  243  A    between atoms: _565  and  _566
REMARK  244  A    between atoms: _565  and  _568
REMARK  245  A    between atoms: _568  and  _569
REMARK  246  A    between atoms: _574  and  _575
REMARK  247  A    between atoms: _577  and  _579
REMARK  248  A    between atoms: _579  and  _580
REMARK  249  A    between atoms: _579  and  _582
REMARK  250  A    between atoms: _582  and  _583
REMARK  251  A    between atoms: _589  and  _591
REMARK  252  A    between atoms: _591  and  _592
REMARK  253  A    between atoms: _591  and  _594
REMARK  254  A    between atoms: _594  and  _595
REMARK  255  A    between atoms: _595  and  _596
REMARK  256  A    between atoms: _598  and  _600
REMARK  257  A    between atoms: _600  and  _601
REMARK  258  A    between atoms: _600  and  _603
REMARK  259  A    between atoms: _603  and  _604
REMARK  260  A    between atoms: _604  and  _605
REMARK  261  A    between atoms: _605  and  _606
REMARK                            x       y       z     vdW  Elec       q    Type
REMARK                         _______ _______ _______ _____ _____    ______ ____
ROOT
ATOM      1  O   HOH     1     -38.914  -8.956  28.164  0.00  0.00    +0.000 OA
ENDROOT
TORSDOF 0
REMARK  Name = ../refined-set-2016/4u0w/4u0w_pocket.pdb
REMARK  261 active torsions:
REMARK  status: ('A' for Active; 'I' for Inactive)
REMARK    1  A    between atoms: _1  and  _3
REMARK    2  A    between atoms: _3  and  _4
REMARK    3  A    between atoms: _3  and  _6
REMARK    4  A    between atoms: _6  and  _7
REMARK    5  A    between atoms: _7  and  _8
REMARK    6  A    between atoms: _13  and  _15
REMARK    7  A    between atoms: _15  and  _16
REMARK    8  A    between atoms: _15  and  _18
REMARK    9  A    between atoms: _18  and  _19
REMARK   10  A    between atoms: _22  and  _24
REMARK   11  A    between atoms: _24  and  _25
REMARK   12  A    between atoms: _24  and  _27
REMARK   13  A    between atoms: _27  and  _28
REMARK   14  A    between atoms: _31  and  _33
REMARK   15  A    between atoms: _33  and  _34
REMARK   16  A    between atoms: _33  and  _36
REMARK   17  A    between atoms: _36  and  _37
REMARK   18  A    between atoms: _40  and  _42
REMARK   19  A    between atoms: _42  and  _43
REMARK   20  A    between atoms: _42  and  _45
REMARK   21  A    between atoms: _45  and  _46
REMARK   22  A    between atoms: _48  and  _50
REMARK   23  A    between atoms: _50  and  _51
REMARK   24  A    between atoms: _50  and  _53
REMARK   25  A    between atoms: _53  and  _54
REMARK   26  A    between atoms: _60  and  _62
REMARK   27  A    between atoms: _62  and  _63
REMARK   28  A    between atoms: _62  and  _65
REMARK   29  A    between atoms: _65  and  _66
REMARK   30  A    between atoms: _69  and  _71
REMARK   31  A    between atoms: _71  and  _72
REMARK   32  A    between atoms: _71  and  _74
REMARK   33  A    between atoms: _74  and  _75
REMARK   34  A    between atoms: _75  and  _76
REMARK   35  A    between atoms: _79  and  _81
REMARK   36  A    between atoms: _81  and  _82
REMARK   37  A    between atoms: _81  and  _84
REMARK   38  A    between atoms: _84  and  _85
REMARK   39  A    between atoms: _88  and  _90
REMARK   40  A    between atoms: _90  and  _91
REMARK   41  A    between atoms: _90  and  _93
REMARK   42  A    between atoms: _93  and  _94
REMARK   43  A    between atoms: _94  and  _95
REMARK   44  A    between atoms: _97  and  _99
REMARK   45  A    between atoms: _99  and  _100
REMARK   46  A    between atoms: _99  and  _102
REMARK   47  A    between atoms: _102  and  _103
REMARK   48  A    between atoms: _103  and  _104
REMARK   49  A    between atoms: _104  and  _105
REMARK   50  A    between atoms: _105  and  _106
REMARK   51  A    between atoms: _111  and  _112
REMARK   52  A    between atoms: _117  and  _119
REMARK   53  A    between atoms: _119  and  _120
REMARK   54  A    between atoms: _122  and  _124
REMARK   55  A    between atoms: _124  and  _125
REMARK   56  A    between atoms: _124  and  _127
REMARK   57  A    between atoms: _127  and  _128
REMARK   58  A    between atoms: _130  and  _132
REMARK   59  A    between atoms: _132  and  _133
REMARK   60  A    between atoms: _132  and  _135
REMARK   61  A    between atoms: _135  and  _136
REMARK   62  A    between atoms: _139  and  _141
REMARK   63  A    between atoms: _141  and  _142
REMARK   64  A    between atoms: _141  and  _144
REMARK   65  A    between atoms: _144  and  _145
REMARK   66  A    between atoms: _145  and  _146
REMARK   67  A    between atoms: _146  and  _147
REMARK   68  A    between atoms: _156  and  _158
REMARK   69  A    between atoms: _158  and  _159
REMARK   70  A    between atoms: _158  and  _161
REMARK   71  A    between atoms: _161  and  _162
REMARK   72  A    between atoms: _162  and  _163
REMARK   73  A    between atoms: _163  and  _164
REMARK   74  A    between atoms: _173  and  _175
REMARK   75  A    between atoms: _175  and  _176
REMARK   76  A    between atoms: _179  and  _181
REMARK   77  A    between atoms: _181  and  _182
REMARK   78  A    between atoms: _181  and  _184
REMARK   79  A    between atoms: _184  and  _185
REMARK   80  A    between atoms: _188  and  _190
REMARK   81  A    between atoms: _190  and  _191
REMARK   82  A    between atoms: _190  and  _193
REMARK   83  A    between atoms: _193  and  _194
REMARK   84  A    between atoms: _194  and  _195
REMARK   85  A    between atoms: _198  and  _200
REMARK   86  A    between atoms: _200  and  _201
REMARK   87  A    between atoms: _200  and  _203
REMARK   88  A    between atoms: _203  and  _204
REMARK   89  A    between atoms: _206  and  _208
REMARK   90  A    between atoms: _208  and  _209
REMARK   91  A    between atoms: _208  and  _211
REMARK   92  A    between atoms: _211  and  _212
REMARK   93  A    between atoms: _214  and  _216
REMARK   94  A    between atoms: _216  and  _217
REMARK   95  A    between atoms: _216  and  _219
REMARK   96  A    between atoms: _219  and  _220
REMARK   97  A    between atoms: _225  and  _227
REMARK   98  A    between atoms: _227  and  _228
REMARK   99  A    between atoms: _227  and  _230
REMARK  100  A    between atoms: _230  and  _231
REMARK  101  A    between atoms: _234  and  _236
REMARK  102  A    between atoms: _236  and  _237
REMARK  103  A    between atoms: _236  and  _239
REMARK  104  A    between atoms: _239  and  _240
REMARK  105  A    between atoms: _245  and  _247
REMARK  106  A    between atoms: _247  and  _248
REMARK  107  A    between atoms: _247  and  _250
REMARK  108  A    between atoms: _250  and  _251
REMARK  109  A    between atoms: _257  and  _259
REMARK  110  A    between atoms: _259  and  _260
REMARK  111  A    between atoms: _259  and  _262
REMARK  112  A    between atoms: _262  and  _263
REMARK  113  A    between atoms: _263  and  _264
REMARK  114  A    between atoms: _269  and  _271
REMARK  115  A    between atoms: _271  and  _272
REMARK  116  A    between atoms: _271  and  _274
REMARK  117  A    between atoms: _274  and  _275
REMARK  118  A    between atoms: _277  and  _279
REMARK  119  A    between atoms: _279  and  _280
REMARK  120  A    between atoms: _279  and  _282
REMARK  121  A    between atoms: _282  and  _283
REMARK  122  A    between atoms: _285  and  _287
REMARK  123  A    between atoms: _287  and  _288
REMARK  124  A    between atoms: _287  and  _290
REMARK  125  A    between atoms: _290  and  _291
REMARK  126  A    between atoms: _294  and  _296
REMARK  127  A    between atoms: _296  and  _297
REMARK  128  A    between atoms: _296  and  _299
REMARK  129  A    between atoms: _299  and  _300
REMARK  130  A    between atoms: _305  and  _306
REMARK  131  A    between atoms: _308  and  _310
REMARK  132  A    between atoms: _310  and  _311
REMARK  133  A    between atoms: _310  and  _313
REMARK  134  A    between atoms: _313  and  _314
REMARK  135  A    between atoms: _317  and  _319
REMARK  136  A    between atoms: _319  and  _320
REMARK  137  A    between atoms: _319  and  _322
REMARK  138  A    between atoms: _322  and  _323
REMARK  139  A    between atoms: _328  and  _330
REMARK  140  A    between atoms: _330  and  _331
REMARK  141  A    between atoms: _330  and  _333
REMARK  142  A    between atoms: _333  and  _334
REMARK  143  A    between atoms: _337  and  _339
REMARK  144  A    between atoms: _339  and  _340
REMARK  145  A    between atoms: _339  and  _342
REMARK  146  A    between atoms: _342  and  _343
REMARK  147  A    between atoms: _343  and  _344
REMARK  148  A    between atoms: _347  and  _349
REMARK  149  A    between atoms: _349  and  _350
REMARK  150  A    between atoms: _349  and  _352
REMARK  151  A    between atoms: _352  and  _353
REMARK  152  A    between atoms: _356  and  _358
REMARK  153  A    between atoms: _358  and  _359
REMARK  154  A    between atoms: _362  and  _364
REMARK  155  A    between atoms: _364  and  _365
REMARK  156  A    between atoms: _364  and  _367
REMARK  157  A    between atoms: _367  and  _368
REMARK  158  A    between atoms: _368  and  _369
REMARK  159  A    between atoms: _369  and  _370
REMARK  160  A    between atoms: _370  and  _371
REMARK  161  A    between atoms: _375  and  _377
REMARK  162  A    between atoms: _377  and  _378
REMARK  163  A    between atoms: _377  and  _380
REMARK  164  A    between atoms: _380  and  _381
REMARK  165  A    between atoms: _381  and  _382
REMARK  166  A    between atoms: _387  and  _389
REMARK  167  A    between atoms: _389  and  _390
REMARK  168  A    between atoms: _389  and  _392
REMARK  169  A    between atoms: _392  and  _393
REMARK  170  A    between atoms: _393  and  _394
REMARK  171  A    between atoms: _397  and  _399
REMARK  172  A    between atoms: _399  and  _400
REMARK  173  A    between atoms: _399  and  _402
REMARK  174  A    between atoms: _402  and  _403
REMARK  175  A    between atoms: _406  and  _408
REMARK  176  A    between atoms: _408  and  _409
REMARK  177  A    between atoms: _408  and  _411
REMARK  178  A    between atoms: _411  and  _412
REMARK  179  A    between atoms: _415  and  _417
REMARK  180  A    between atoms: _417  and  _418
REMARK  181  A    between atoms: _417  and  _420
REMARK  182  A    between atoms: _420  and  _421
REMARK  183  A    between atoms: _424  and  _426
REMARK  184  A    between atoms: _426  and  _427
REMARK  185  A    between atoms: _426  and  _429
REMARK  186  A    between atoms: _429  and  _430
REMARK  187  A    between atoms: _433  and  _435
REMARK  188  A    between atoms: _435  and  _436
REMARK  189  A    between atoms: _435  and  _438
REMARK  190  A    between atoms: _438  and  _439
REMARK  191  A    between atoms: _439  and  _440
REMARK  192  A    between atoms: _440  and  _441
REMARK  193  A    between atoms: _441  and  _442
REMARK  194  A    between atoms: _446  and  _448
REMARK  195  A    between atoms: _448  and  _449
REMARK  196  A    between atoms: _448  and  _451
REMARK  197  A    between atoms: _451  and  _452
REMARK  198  A    between atoms: _452  and  _453
REMARK  199  A    between atoms: _453  and  _454
REMARK  200  A    between atoms: _463  and  _465
REMARK  201  A    between atoms: _465  and  _466
REMARK  202  A    between atoms: _465  and  _468
REMARK  203  A    between atoms: _468  and  _469
REMARK  204  A    between atoms: _472  and  _474
REMARK  205  A    between atoms: _474  and  _475
REMARK  206  A    between atoms: _474  and  _477
REMARK  207  A    between atoms: _477  and  _478
REMARK  208  A    between atoms: _481  and  _483
REMARK  209  A    between atoms: _483  and  _484
REMARK  210  A    between atoms: _483  and  _486
REMARK  211  A    between atoms: _486  and  _487
REMARK  212  A    between atoms: _493  and  _495
REMARK  213  A    between atoms: _495  and  _496
REMARK  214  A    between atoms: _495  and  _498
REMARK  215  A    between atoms: _498  and  _499
REMARK  216  A    between atoms: _499  and  _500
REMARK  217  A    between atoms: _503  and  _505
REMARK  218  A    between atoms: _505  and  _506
REMARK  219  A    between atoms: _505  and  _508
REMARK  220  A    between atoms: _508  and  _509
REMARK  221  A    between atoms: _514  and  _516
REMARK  222  A    between atoms: _516  and  _517
REMARK  223  A    between atoms: _520  and  _522
REMARK  224  A    between atoms: _522  and  _523
REMARK  225  A    between atoms: _522  and  _525
REMARK  226  A    between atoms: _525  and  _526
REMARK  227  A    between atoms: _526  and  _527
REMARK  228  A    between atoms: _527  and  _528
REMARK  229  A    between atoms: _528  and  _529
REMARK  230  A    between atoms: _533  and  _535
REMARK  231  A    between atoms: _535  and  _536
REMARK  232  A    between atoms: _535  and  _538
REMARK  233  A    between atoms: _538  and  _539
REMARK  234  A    between atoms: _541  and  _543
REMARK  235  A    between atoms: _543  and  _544
REMARK  236  A    between atoms: _543  and  _546
REMARK  237  A    between atoms: _549  and  _551
REMARK  238  A    between atoms: _551  and  _552
REMARK  239  A    between atoms: _551  and  _554
REMARK  240  A    between atoms: _554  and  _555
REMARK  241  A    between atoms: _560  and  _561
REMARK  242  A    between atoms: _563  and  _565
REMARK  243  A    between atoms: _565  and  _566
REMARK  244  A    between atoms: _565  and  _568
REMARK  245  A    between atoms: _568  and  _569
REMARK  246  A    between atoms: _574  and  _575
REMARK  247  A    between atoms: _577  and  _579
REMARK  248  A    between atoms: _579  and  _580
REMARK  249  A    between atoms: _579  and  _582
REMARK  250  A    between atoms: _582  and  _583
REMARK  251  A    between atoms: _589  and  _591
REMARK  252  A    between atoms: _591  and  _592
REMARK  253  A    between atoms: _591  and  _594
REMARK  254  A    between atoms: _594  and  _595
REMARK  255  A    between atoms: _595  and  _596
REMARK  256  A    between atoms: _598  and  _600
REMARK  257  A    between atoms: _600  and  _601
REMARK  258  A    between atoms: _600  and  _603
REMARK  259  A    between atoms: _603  and  _604
REMARK  260  A    between atoms: _604  and  _605
REMARK  261  A    between atoms: _605  and  _606
REMARK                            x       y       z     vdW  Elec       q    Type
REMARK                         _______ _______ _______ _____ _____    ______ ____
ROOT
ATOM      1  O   HOH     1     -50.935 -17.439  27.785  0.00  0.00    +0.000 OA
ENDROOT
TORSDOF 0
REMARK  Name = ../refined-set-2016/4u0w/4u0w_pocket.pdb
REMARK  261 active torsions:
REMARK  status: ('A' for Active; 'I' for Inactive)
REMARK    1  A    between atoms: _1  and  _3
REMARK    2  A    between atoms: _3  and  _4
REMARK    3  A    between atoms: _3  and  _6
REMARK    4  A    between atoms: _6  and  _7
REMARK    5  A    between atoms: _7  and  _8
REMARK    6  A    between atoms: _13  and  _15
REMARK    7  A    between atoms: _15  and  _16
REMARK    8  A    between atoms: _15  and  _18
REMARK    9  A    between atoms: _18  and  _19
REMARK   10  A    between atoms: _22  and  _24
REMARK   11  A    between atoms: _24  and  _25
REMARK   12  A    between atoms: _24  and  _27
REMARK   13  A    between atoms: _27  and  _28
REMARK   14  A    between atoms: _31  and  _33
REMARK   15  A    between atoms: _33  and  _34
REMARK   16  A    between atoms: _33  and  _36
REMARK   17  A    between atoms: _36  and  _37
REMARK   18  A    between atoms: _40  and  _42
REMARK   19  A    between atoms: _42  and  _43
REMARK   20  A    between atoms: _42  and  _45
REMARK   21  A    between atoms: _45  and  _46
REMARK   22  A    between atoms: _48  and  _50
REMARK   23  A    between atoms: _50  and  _51
REMARK   24  A    between atoms: _50  and  _53
REMARK   25  A    between atoms: _53  and  _54
REMARK   26  A    between atoms: _60  and  _62
REMARK   27  A    between atoms: _62  and  _63
REMARK   28  A    between atoms: _62  and  _65
REMARK   29  A    between atoms: _65  and  _66
REMARK   30  A    between atoms: _69  and  _71
REMARK   31  A    between atoms: _71  and  _72
REMARK   32  A    between atoms: _71  and  _74
REMARK   33  A    between atoms: _74  and  _75
REMARK   34  A    between atoms: _75  and  _76
REMARK   35  A    between atoms: _79  and  _81
REMARK   36  A    between atoms: _81  and  _82
REMARK   37  A    between atoms: _81  and  _84
REMARK   38  A    between atoms: _84  and  _85
REMARK   39  A    between atoms: _88  and  _90
REMARK   40  A    between atoms: _90  and  _91
REMARK   41  A    between atoms: _90  and  _93
REMARK   42  A    between atoms: _93  and  _94
REMARK   43  A    between atoms: _94  and  _95
REMARK   44  A    between atoms: _97  and  _99
REMARK   45  A    between atoms: _99  and  _100
REMARK   46  A    between atoms: _99  and  _102
REMARK   47  A    between atoms: _102  and  _103
REMARK   48  A    between atoms: _103  and  _104
REMARK   49  A    between atoms: _104  and  _105
REMARK   50  A    between atoms: _105  and  _106
REMARK   51  A    between atoms: _111  and  _112
REMARK   52  A    between atoms: _117  and  _119
REMARK   53  A    between atoms: _119  and  _120
REMARK   54  A    between atoms: _122  and  _124
REMARK   55  A    between atoms: _124  and  _125
REMARK   56  A    between atoms: _124  and  _127
REMARK   57  A    between atoms: _127  and  _128
REMARK   58  A    between atoms: _130  and  _132
REMARK   59  A    between atoms: _132  and  _133
REMARK   60  A    between atoms: _132  and  _135
REMARK   61  A    between atoms: _135  and  _136
REMARK   62  A    between atoms: _139  and  _141
REMARK   63  A    between atoms: _141  and  _142
REMARK   64  A    between atoms: _141  and  _144
REMARK   65  A    between atoms: _144  and  _145
REMARK   66  A    between atoms: _145  and  _146
REMARK   67  A    between atoms: _146  and  _147
REMARK   68  A    between atoms: _156  and  _158
REMARK   69  A    between atoms: _158  and  _159
REMARK   70  A    between atoms: _158  and  _161
REMARK   71  A    between atoms: _161  and  _162
REMARK   72  A    between atoms: _162  and  _163
REMARK   73  A    between atoms: _163  and  _164
REMARK   74  A    between atoms: _173  and  _175
REMARK   75  A    between atoms: _175  and  _176
REMARK   76  A    between atoms: _179  and  _181
REMARK   77  A    between atoms: _181  and  _182
REMARK   78  A    between atoms: _181  and  _184
REMARK   79  A    between atoms: _184  and  _185
REMARK   80  A    between atoms: _188  and  _190
REMARK   81  A    between atoms: _190  and  _191
REMARK   82  A    between atoms: _190  and  _193
REMARK   83  A    between atoms: _193  and  _194
REMARK   84  A    between atoms: _194  and  _195
REMARK   85  A    between atoms: _198  and  _200
REMARK   86  A    between atoms: _200  and  _201
REMARK   87  A    between atoms: _200  and  _203
REMARK   88  A    between atoms: _203  and  _204
REMARK   89  A    between atoms: _206  and  _208
REMARK   90  A    between atoms: _208  and  _209
REMARK   91  A    between atoms: _208  and  _211
REMARK   92  A    between atoms: _211  and  _212
REMARK   93  A    between atoms: _214  and  _216
REMARK   94  A    between atoms: _216  and  _217
REMARK   95  A    between atoms: _216  and  _219
REMARK   96  A    between atoms: _219  and  _220
REMARK   97  A    between atoms: _225  and  _227
REMARK   98  A    between atoms: _227  and  _228
REMARK   99  A    between atoms: _227  and  _230
REMARK  100  A    between atoms: _230  and  _231
REMARK  101  A    between atoms: _234  and  _236
REMARK  102  A    between atoms: _236  and  _237
REMARK  103  A    between atoms: _236  and  _239
REMARK  104  A    between atoms: _239  and  _240
REMARK  105  A    between atoms: _245  and  _247
REMARK  106  A    between atoms: _247  and  _248
REMARK  107  A    between atoms: _247  and  _250
REMARK  108  A    between atoms: _250  and  _251
REMARK  109  A    between atoms: _257  and  _259
REMARK  110  A    between atoms: _259  and  _260
REMARK  111  A    between atoms: _259  and  _262
REMARK  112  A    between atoms: _262  and  _263
REMARK  113  A    between atoms: _263  and  _264
REMARK  114  A    between atoms: _269  and  _271
REMARK  115  A    between atoms: _271  and  _272
REMARK  116  A    between atoms: _271  and  _274
REMARK  117  A    between atoms: _274  and  _275
REMARK  118  A    between atoms: _277  and  _279
REMARK  119  A    between atoms: _279  and  _280
REMARK  120  A    between atoms: _279  and  _282
REMARK  121  A    between atoms: _282  and  _283
REMARK  122  A    between atoms: _285  and  _287
REMARK  123  A    between atoms: _287  and  _288
REMARK  124  A    between atoms: _287  and  _290
REMARK  125  A    between atoms: _290  and  _291
REMARK  126  A    between atoms: _294  and  _296
REMARK  127  A    between atoms: _296  and  _297
REMARK  128  A    between atoms: _296  and  _299
REMARK  129  A    between atoms: _299  and  _300
REMARK  130  A    between atoms: _305  and  _306
REMARK  131  A    between atoms: _308  and  _310
REMARK  132  A    between atoms: _310  and  _311
REMARK  133  A    between atoms: _310  and  _313
REMARK  134  A    between atoms: _313  and  _314
REMARK  135  A    between atoms: _317  and  _319
REMARK  136  A    between atoms: _319  and  _320
REMARK  137  A    between atoms: _319  and  _322
REMARK  138  A    between atoms: _322  and  _323
REMARK  139  A    between atoms: _328  and  _330
REMARK  140  A    between atoms: _330  and  _331
REMARK  141  A    between atoms: _330  and  _333
REMARK  142  A    between atoms: _333  and  _334
REMARK  143  A    between atoms: _337  and  _339
REMARK  144  A    between atoms: _339  and  _340
REMARK  145  A    between atoms: _339  and  _342
REMARK  146  A    between atoms: _342  and  _343
REMARK  147  A    between atoms: _343  and  _344
REMARK  148  A    between atoms: _347  and  _349
REMARK  149  A    between atoms: _349  and  _350
REMARK  150  A    between atoms: _349  and  _352
REMARK  151  A    between atoms: _352  and  _353
REMARK  152  A    between atoms: _356  and  _358
REMARK  153  A    between atoms: _358  and  _359
REMARK  154  A    between atoms: _362  and  _364
REMARK  155  A    between atoms: _364  and  _365
REMARK  156  A    between atoms: _364  and  _367
REMARK  157  A    between atoms: _367  and  _368
REMARK  158  A    between atoms: _368  and  _369
REMARK  159  A    between atoms: _369  and  _370
REMARK  160  A    between atoms: _370  and  _371
REMARK  161  A    between atoms: _375  and  _377
REMARK  162  A    between atoms: _377  and  _378
REMARK  163  A    between atoms: _377  and  _380
REMARK  164  A    between atoms: _380  and  _381
REMARK  165  A    between atoms: _381  and  _382
REMARK  166  A    between atoms: _387  and  _389
REMARK  167  A    between atoms: _389  and  _390
REMARK  168  A    between atoms: _389  and  _392
REMARK  169  A    between atoms: _392  and  _393
REMARK  170  A    between atoms: _393  and  _394
REMARK  171  A    between atoms: _397  and  _399
REMARK  172  A    between atoms: _399  and  _400
REMARK  173  A    between atoms: _399  and  _402
REMARK  174  A    between atoms: _402  and  _403
REMARK  175  A    between atoms: _406  and  _408
REMARK  176  A    between atoms: _408  and  _409
REMARK  177  A    between atoms: _408  and  _411
REMARK  178  A    between atoms: _411  and  _412
REMARK  179  A    between atoms: _415  and  _417
REMARK  180  A    between atoms: _417  and  _418
REMARK  181  A    between atoms: _417  and  _420
REMARK  182  A    between atoms: _420  and  _421
REMARK  183  A    between atoms: _424  and  _426
REMARK  184  A    between atoms: _426  and  _427
REMARK  185  A    between atoms: _426  and  _429
REMARK  186  A    between atoms: _429  and  _430
REMARK  187  A    between atoms: _433  and  _435
REMARK  188  A    between atoms: _435  and  _436
REMARK  189  A    between atoms: _435  and  _438
REMARK  190  A    between atoms: _438  and  _439
REMARK  191  A    between atoms: _439  and  _440
REMARK  192  A    between atoms: _440  and  _441
REMARK  193  A    between atoms: _441  and  _442
REMARK  194  A    between atoms: _446  and  _448
REMARK  195  A    between atoms: _448  and  _449
REMARK  196  A    between atoms: _448  and  _451
REMARK  197  A    between atoms: _451  and  _452
REMARK  198  A    between atoms: _452  and  _453
REMARK  199  A    between atoms: _453  and  _454
REMARK  200  A    between atoms: _463  and  _465
REMARK  201  A    between atoms: _465  and  _466
REMARK  202  A    between atoms: _465  and  _468
REMARK  203  A    between atoms: _468  and  _469
REMARK  204  A    between atoms: _472  and  _474
REMARK  205  A    between atoms: _474  and  _475
REMARK  206  A    between atoms: _474  and  _477
REMARK  207  A    between atoms: _477  and  _478
REMARK  208  A    between atoms: _481  and  _483
REMARK  209  A    between atoms: _483  and  _484
REMARK  210  A    between atoms: _483  and  _486
REMARK  211  A    between atoms: _486  and  _487
REMARK  212  A    between atoms: _493  and  _495
REMARK  213  A    between atoms: _495  and  _496
REMARK  214  A    between atoms: _495  and  _498
REMARK  215  A    between atoms: _498  and  _499
REMARK  216  A    between atoms: _499  and  _500
REMARK  217  A    between atoms: _503  and  _505
REMARK  218  A    between atoms: _505  and  _506
REMARK  219  A    between atoms: _505  and  _508
REMARK  220  A    between atoms: _508  and  _509
REMARK  221  A    between atoms: _514  and  _516
REMARK  222  A    between atoms: _516  and  _517
REMARK  223  A    between atoms: _520  and  _522
REMARK  224  A    between atoms: _522  and  _523
REMARK  225  A    between atoms: _522  and  _525
REMARK  226  A    between atoms: _525  and  _526
REMARK  227  A    between atoms: _526  and  _527
REMARK  228  A    between atoms: _527  and  _528
REMARK  229  A    between atoms: _528  and  _529
REMARK  230  A    between atoms: _533  and  _535
REMARK  231  A    between atoms: _535  and  _536
REMARK  232  A    between atoms: _535  and  _538
REMARK  233  A    between atoms: _538  and  _539
REMARK  234  A    between atoms: _541  and  _543
REMARK  235  A    between atoms: _543  and  _544
REMARK  236  A    between atoms: _543  and  _546
REMARK  237  A    between atoms: _549  and  _551
REMARK  238  A    between atoms: _551  and  _552
REMARK  239  A    between atoms: _551  and  _554
REMARK  240  A    between atoms: _554  and  _555
REMARK  241  A    between atoms: _560  and  _561
REMARK  242  A    between atoms: _563  and  _565
REMARK  243  A    between atoms: _565  and  _566
REMARK  244  A    between atoms: _565  and  _568
REMARK  245  A    between atoms: _568  and  _569
REMARK  246  A    between atoms: _574  and  _575
REMARK  247  A    between atoms: _577  and  _579
REMARK  248  A    between atoms: _579  and  _580
REMARK  249  A    between atoms: _579  and  _582
REMARK  250  A    between atoms: _582  and  _583
REMARK  251  A    between atoms: _589  and  _591
REMARK  252  A    between atoms: _591  and  _592
REMARK  253  A    between atoms: _591  and  _594
REMARK  254  A    between atoms: _594  and  _595
REMARK  255  A    between atoms: _595  and  _596
REMARK  256  A    between atoms: _598  and  _600
REMARK  257  A    between atoms: _600  and  _601
REMARK  258  A    between atoms: _600  and  _603
REMARK  259  A    between atoms: _603  and  _604
REMARK  260  A    between atoms: _604  and  _605
REMARK  261  A    between atoms: _605  and  _606
REMARK                            x       y       z     vdW  Elec       q    Type
REMARK                         _______ _______ _______ _____ _____    ______ ____
ROOT
ATOM      1  O   HOH     1     -43.164 -20.743  24.740  0.00  0.00    +0.000 OA
ENDROOT
TORSDOF 0
REMARK  Name = ../refined-set-2016/4u0w/4u0w_pocket.pdb
REMARK  261 active torsions:
REMARK  status: ('A' for Active; 'I' for Inactive)
REMARK    1  A    between atoms: _1  and  _3
REMARK    2  A    between atoms: _3  and  _4
REMARK    3  A    between atoms: _3  and  _6
REMARK    4  A    between atoms: _6  and  _7
REMARK    5  A    between atoms: _7  and  _8
REMARK    6  A    between atoms: _13  and  _15
REMARK    7  A    between atoms: _15  and  _16
REMARK    8  A    between atoms: _15  and  _18
REMARK    9  A    between atoms: _18  and  _19
REMARK   10  A    between atoms: _22  and  _24
REMARK   11  A    between atoms: _24  and  _25
REMARK   12  A    between atoms: _24  and  _27
REMARK   13  A    between atoms: _27  and  _28
REMARK   14  A    between atoms: _31  and  _33
REMARK   15  A    between atoms: _33  and  _34
REMARK   16  A    between atoms: _33  and  _36
REMARK   17  A    between atoms: _36  and  _37
REMARK   18  A    between atoms: _40  and  _42
REMARK   19  A    between atoms: _42  and  _43
REMARK   20  A    between atoms: _42  and  _45
REMARK   21  A    between atoms: _45  and  _46
REMARK   22  A    between atoms: _48  and  _50
REMARK   23  A    between atoms: _50  and  _51
REMARK   24  A    between atoms: _50  and  _53
REMARK   25  A    between atoms: _53  and  _54
REMARK   26  A    between atoms: _60  and  _62
REMARK   27  A    between atoms: _62  and  _63
REMARK   28  A    between atoms: _62  and  _65
REMARK   29  A    between atoms: _65  and  _66
REMARK   30  A    between atoms: _69  and  _71
REMARK   31  A    between atoms: _71  and  _72
REMARK   32  A    between atoms: _71  and  _74
REMARK   33  A    between atoms: _74  and  _75
REMARK   34  A    between atoms: _75  and  _76
REMARK   35  A    between atoms: _79  and  _81
REMARK   36  A    between atoms: _81  and  _82
REMARK   37  A    between atoms: _81  and  _84
REMARK   38  A    between atoms: _84  and  _85
REMARK   39  A    between atoms: _88  and  _90
REMARK   40  A    between atoms: _90  and  _91
REMARK   41  A    between atoms: _90  and  _93
REMARK   42  A    between atoms: _93  and  _94
REMARK   43  A    between atoms: _94  and  _95
REMARK   44  A    between atoms: _97  and  _99
REMARK   45  A    between atoms: _99  and  _100
REMARK   46  A    between atoms: _99  and  _102
REMARK   47  A    between atoms: _102  and  _103
REMARK   48  A    between atoms: _103  and  _104
REMARK   49  A    between atoms: _104  and  _105
REMARK   50  A    between atoms: _105  and  _106
REMARK   51  A    between atoms: _111  and  _112
REMARK   52  A    between atoms: _117  and  _119
REMARK   53  A    between atoms: _119  and  _120
REMARK   54  A    between atoms: _122  and  _124
REMARK   55  A    between atoms: _124  and  _125
REMARK   56  A    between atoms: _124  and  _127
REMARK   57  A    between atoms: _127  and  _128
REMARK   58  A    between atoms: _130  and  _132
REMARK   59  A    between atoms: _132  and  _133
REMARK   60  A    between atoms: _132  and  _135
REMARK   61  A    between atoms: _135  and  _136
REMARK   62  A    between atoms: _139  and  _141
REMARK   63  A    between atoms: _141  and  _142
REMARK   64  A    between atoms: _141  and  _144
REMARK   65  A    between atoms: _144  and  _145
REMARK   66  A    between atoms: _145  and  _146
REMARK   67  A    between atoms: _146  and  _147
REMARK   68  A    between atoms: _156  and  _158
REMARK   69  A    between atoms: _158  and  _159
REMARK   70  A    between atoms: _158  and  _161
REMARK   71  A    between atoms: _161  and  _162
REMARK   72  A    between atoms: _162  and  _163
REMARK   73  A    between atoms: _163  and  _164
REMARK   74  A    between atoms: _173  and  _175
REMARK   75  A    between atoms: _175  and  _176
REMARK   76  A    between atoms: _179  and  _181
REMARK   77  A    between atoms: _181  and  _182
REMARK   78  A    between atoms: _181  and  _184
REMARK   79  A    between atoms: _184  and  _185
REMARK   80  A    between atoms: _188  and  _190
REMARK   81  A    between atoms: _190  and  _191
REMARK   82  A    between atoms: _190  and  _193
REMARK   83  A    between atoms: _193  and  _194
REMARK   84  A    between atoms: _194  and  _195
REMARK   85  A    between atoms: _198  and  _200
REMARK   86  A    between atoms: _200  and  _201
REMARK   87  A    between atoms: _200  and  _203
REMARK   88  A    between atoms: _203  and  _204
REMARK   89  A    between atoms: _206  and  _208
REMARK   90  A    between atoms: _208  and  _209
REMARK   91  A    between atoms: _208  and  _211
REMARK   92  A    between atoms: _211  and  _212
REMARK   93  A    between atoms: _214  and  _216
REMARK   94  A    between atoms: _216  and  _217
REMARK   95  A    between atoms: _216  and  _219
REMARK   96  A    between atoms: _219  and  _220
REMARK   97  A    between atoms: _225  and  _227
REMARK   98  A    between atoms: _227  and  _228
REMARK   99  A    between atoms: _227  and  _230
REMARK  100  A    between atoms: _230  and  _231
REMARK  101  A    between atoms: _234  and  _236
REMARK  102  A    between atoms: _236  and  _237
REMARK  103  A    between atoms: _236  and  _239
REMARK  104  A    between atoms: _239  and  _240
REMARK  105  A    between atoms: _245  and  _247
REMARK  106  A    between atoms: _247  and  _248
REMARK  107  A    between atoms: _247  and  _250
REMARK  108  A    between atoms: _250  and  _251
REMARK  109  A    between atoms: _257  and  _259
REMARK  110  A    between atoms: _259  and  _260
REMARK  111  A    between atoms: _259  and  _262
REMARK  112  A    between atoms: _262  and  _263
REMARK  113  A    between atoms: _263  and  _264
REMARK  114  A    between atoms: _269  and  _271
REMARK  115  A    between atoms: _271  and  _272
REMARK  116  A    between atoms: _271  and  _274
REMARK  117  A    between atoms: _274  and  _275
REMARK  118  A    between atoms: _277  and  _279
REMARK  119  A    between atoms: _279  and  _280
REMARK  120  A    between atoms: _279  and  _282
REMARK  121  A    between atoms: _282  and  _283
REMARK  122  A    between atoms: _285  and  _287
REMARK  123  A    between atoms: _287  and  _288
REMARK  124  A    between atoms: _287  and  _290
REMARK  125  A    between atoms: _290  and  _291
REMARK  126  A    between atoms: _294  and  _296
REMARK  127  A    between atoms: _296  and  _297
REMARK  128  A    between atoms: _296  and  _299
REMARK  129  A    between atoms: _299  and  _300
REMARK  130  A    between atoms: _305  and  _306
REMARK  131  A    between atoms: _308  and  _310
REMARK  132  A    between atoms: _310  and  _311
REMARK  133  A    between atoms: _310  and  _313
REMARK  134  A    between atoms: _313  and  _314
REMARK  135  A    between atoms: _317  and  _319
REMARK  136  A    between atoms: _319  and  _320
REMARK  137  A    between atoms: _319  and  _322
REMARK  138  A    between atoms: _322  and  _323
REMARK  139  A    between atoms: _328  and  _330
REMARK  140  A    between atoms: _330  and  _331
REMARK  141  A    between atoms: _330  and  _333
REMARK  142  A    between atoms: _333  and  _334
REMARK  143  A    between atoms: _337  and  _339
REMARK  144  A    between atoms: _339  and  _340
REMARK  145  A    between atoms: _339  and  _342
REMARK  146  A    between atoms: _342  and  _343
REMARK  147  A    between atoms: _343  and  _344
REMARK  148  A    between atoms: _347  and  _349
REMARK  149  A    between atoms: _349  and  _350
REMARK  150  A    between atoms: _349  and  _352
REMARK  151  A    between atoms: _352  and  _353
REMARK  152  A    between atoms: _356  and  _358
REMARK  153  A    between atoms: _358  and  _359
REMARK  154  A    between atoms: _362  and  _364
REMARK  155  A    between atoms: _364  and  _365
REMARK  156  A    between atoms: _364  and  _367
REMARK  157  A    between atoms: _367  and  _368
REMARK  158  A    between atoms: _368  and  _369
REMARK  159  A    between atoms: _369  and  _370
REMARK  160  A    between atoms: _370  and  _371
REMARK  161  A    between atoms: _375  and  _377
REMARK  162  A    between atoms: _377  and  _378
REMARK  163  A    between atoms: _377  and  _380
REMARK  164  A    between atoms: _380  and  _381
REMARK  165  A    between atoms: _381  and  _382
REMARK  166  A    between atoms: _387  and  _389
REMARK  167  A    between atoms: _389  and  _390
REMARK  168  A    between atoms: _389  and  _392
REMARK  169  A    between atoms: _392  and  _393
REMARK  170  A    between atoms: _393  and  _394
REMARK  171  A    between atoms: _397  and  _399
REMARK  172  A    between atoms: _399  and  _400
REMARK  173  A    between atoms: _399  and  _402
REMARK  174  A    between atoms: _402  and  _403
REMARK  175  A    between atoms: _406  and  _408
REMARK  176  A    between atoms: _408  and  _409
REMARK  177  A    between atoms: _408  and  _411
REMARK  178  A    between atoms: _411  and  _412
REMARK  179  A    between atoms: _415  and  _417
REMARK  180  A    between atoms: _417  and  _418
REMARK  181  A    between atoms: _417  and  _420
REMARK  182  A    between atoms: _420  and  _421
REMARK  183  A    between atoms: _424  and  _426
REMARK  184  A    between atoms: _426  and  _427
REMARK  185  A    between atoms: _426  and  _429
REMARK  186  A    between atoms: _429  and  _430
REMARK  187  A    between atoms: _433  and  _435
REMARK  188  A    between atoms: _435  and  _436
REMARK  189  A    between atoms: _435  and  _438
REMARK  190  A    between atoms: _438  and  _439
REMARK  191  A    between atoms: _439  and  _440
REMARK  192  A    between atoms: _440  and  _441
REMARK  193  A    between atoms: _441  and  _442
REMARK  194  A    between atoms: _446  and  _448
REMARK  195  A    between atoms: _448  and  _449
REMARK  196  A    between atoms: _448  and  _451
REMARK  197  A    between atoms: _451  and  _452
REMARK  198  A    between atoms: _452  and  _453
REMARK  199  A    between atoms: _453  and  _454
REMARK  200  A    between atoms: _463  and  _465
REMARK  201  A    between atoms: _465  and  _466
REMARK  202  A    between atoms: _465  and  _468
REMARK  203  A    between atoms: _468  and  _469
REMARK  204  A    between atoms: _472  and  _474
REMARK  205  A    between atoms: _474  and  _475
REMARK  206  A    between atoms: _474  and  _477
REMARK  207  A    between atoms: _477  and  _478
REMARK  208  A    between atoms: _481  and  _483
REMARK  209  A    between atoms: _483  and  _484
REMARK  210  A    between atoms: _483  and  _486
REMARK  211  A    between atoms: _486  and  _487
REMARK  212  A    between atoms: _493  and  _495
REMARK  213  A    between atoms: _495  and  _496
REMARK  214  A    between atoms: _495  and  _498
REMARK  215  A    between atoms: _498  and  _499
REMARK  216  A    between atoms: _499  and  _500
REMARK  217  A    between atoms: _503  and  _505
REMARK  218  A    between atoms: _505  and  _506
REMARK  219  A    between atoms: _505  and  _508
REMARK  220  A    between atoms: _508  and  _509
REMARK  221  A    between atoms: _514  and  _516
REMARK  222  A    between atoms: _516  and  _517
REMARK  223  A    between atoms: _520  and  _522
REMARK  224  A    between atoms: _522  and  _523
REMARK  225  A    between atoms: _522  and  _525
REMARK  226  A    between atoms: _525  and  _526
REMARK  227  A    between atoms: _526  and  _527
REMARK  228  A    between atoms: _527  and  _528
REMARK  229  A    between atoms: _528  and  _529
REMARK  230  A    between atoms: _533  and  _535
REMARK  231  A    between atoms: _535  and  _536
REMARK  232  A    between atoms: _535  and  _538
REMARK  233  A    between atoms: _538  and  _539
REMARK  234  A    between atoms: _541  and  _543
REMARK  235  A    between atoms: _543  and  _544
REMARK  236  A    between atoms: _543  and  _546
REMARK  237  A    between atoms: _549  and  _551
REMARK  238  A    between atoms: _551  and  _552
REMARK  239  A    between atoms: _551  and  _554
REMARK  240  A    between atoms: _554  and  _555
REMARK  241  A    between atoms: _560  and  _561
REMARK  242  A    between atoms: _563  and  _565
REMARK  243  A    between atoms: _565  and  _566
REMARK  244  A    between atoms: _565  and  _568
REMARK  245  A    between atoms: _568  and  _569
REMARK  246  A    between atoms: _574  and  _575
REMARK  247  A    between atoms: _577  and  _579
REMARK  248  A    between atoms: _579  and  _580
REMARK  249  A    between atoms: _579  and  _582
REMARK  250  A    between atoms: _582  and  _583
REMARK  251  A    between atoms: _589  and  _591
REMARK  252  A    between atoms: _591  and  _592
REMARK  253  A    between atoms: _591  and  _594
REMARK  254  A    between atoms: _594  and  _595
REMARK  255  A    between atoms: _595  and  _596
REMARK  256  A    between atoms: _598  and  _600
REMARK  257  A    between atoms: _600  and  _601
REMARK  258  A    between atoms: _600  and  _603
REMARK  259  A    between atoms: _603  and  _604
REMARK  260  A    between atoms: _604  and  _605
REMARK  261  A    between atoms: _605  and  _606
REMARK                            x       y       z     vdW  Elec       q    Type
REMARK                         _______ _______ _______ _____ _____    ______ ____
ROOT
ATOM      1  O   HOH     1     -36.700 -10.011  28.367  0.00  0.00    +0.000 OA
ENDROOT
TORSDOF 0
