REMARK  Name = ../refined-set-2016/2g94/2g94_pocket.pdb
REMARK  270 active torsions:
REMARK  status: ('A' for Active; 'I' for Inactive)
REMARK    1  A    between atoms: _1  and  _3
REMARK    2  A    between atoms: _3  and  _4
REMARK    3  A    between atoms: _3  and  _6
REMARK    4  A    between atoms: _6  and  _7
REMARK    5  A    between atoms: _7  and  _8
REMARK    6  A    between atoms: _8  and  _9
REMARK    7  A    between atoms: _9  and  _10
REMARK    8  A    between atoms: _14  and  _16
REMARK    9  A    between atoms: _16  and  _17
REMARK   10  A    between atoms: _16  and  _19
REMARK   11  A    between atoms: _19  and  _20
REMARK   12  A    between atoms: _22  and  _24
REMARK   13  A    between atoms: _24  and  _25
REMARK   14  A    between atoms: _27  and  _29
REMARK   15  A    between atoms: _29  and  _30
REMARK   16  A    between atoms: _29  and  _32
REMARK   17  A    between atoms: _32  and  _33
REMARK   18  A    between atoms: _33  and  _34
REMARK   19  A    between atoms: _39  and  _41
REMARK   20  A    between atoms: _41  and  _42
REMARK   21  A    between atoms: _44  and  _46
REMARK   22  A    between atoms: _46  and  _47
REMARK   23  A    between atoms: _46  and  _49
REMARK   24  A    between atoms: _49  and  _50
REMARK   25  A    between atoms: _55  and  _56
REMARK   26  A    between atoms: _58  and  _60
REMARK   27  A    between atoms: _60  and  _61
REMARK   28  A    between atoms: _60  and  _63
REMARK   29  A    between atoms: _63  and  _64
REMARK   30  A    between atoms: _69  and  _70
REMARK   31  A    between atoms: _72  and  _74
REMARK   32  A    between atoms: _74  and  _75
REMARK   33  A    between atoms: _74  and  _77
REMARK   34  A    between atoms: _77  and  _78
REMARK   35  A    between atoms: _81  and  _83
REMARK   36  A    between atoms: _83  and  _84
REMARK   37  A    between atoms: _83  and  _86
REMARK   38  A    between atoms: _89  and  _91
REMARK   39  A    between atoms: _91  and  _92
REMARK   40  A    between atoms: _91  and  _94
REMARK   41  A    between atoms: _94  and  _95
REMARK   42  A    between atoms: _98  and  _100
REMARK   43  A    between atoms: _100  and  _101
REMARK   44  A    between atoms: _100  and  _103
REMARK   45  A    between atoms: _103  and  _104
REMARK   46  A    between atoms: _107  and  _109
REMARK   47  A    between atoms: _109  and  _110
REMARK   48  A    between atoms: _112  and  _114
REMARK   49  A    between atoms: _114  and  _115
REMARK   50  A    between atoms: _114  and  _117
REMARK   51  A    between atoms: _117  and  _118
REMARK   52  A    between atoms: _120  and  _122
REMARK   53  A    between atoms: _122  and  _123
REMARK   54  A    between atoms: _122  and  _125
REMARK   55  A    between atoms: _125  and  _126
REMARK   56  A    between atoms: _128  and  _130
REMARK   57  A    between atoms: _130  and  _131
REMARK   58  A    between atoms: _130  and  _133
REMARK   59  A    between atoms: _133  and  _134
REMARK   60  A    between atoms: _139  and  _141
REMARK   61  A    between atoms: _141  and  _142
REMARK   62  A    between atoms: _141  and  _144
REMARK   63  A    between atoms: _144  and  _145
REMARK   64  A    between atoms: _150  and  _151
REMARK   65  A    between atoms: _153  and  _155
REMARK   66  A    between atoms: _155  and  _156
REMARK   67  A    between atoms: _155  and  _158
REMARK   68  A    between atoms: _162  and  _163
REMARK   69  A    between atoms: _168  and  _170
REMARK   70  A    between atoms: _170  and  _171
REMARK   71  A    between atoms: _170  and  _173
REMARK   72  A    between atoms: _173  and  _174
REMARK   73  A    between atoms: _179  and  _180
REMARK   74  A    between atoms: _182  and  _184
REMARK   75  A    between atoms: _184  and  _185
REMARK   76  A    between atoms: _184  and  _187
REMARK   77  A    between atoms: _187  and  _188
REMARK   78  A    between atoms: _191  and  _193
REMARK   79  A    between atoms: _193  and  _194
REMARK   80  A    between atoms: _193  and  _196
REMARK   81  A    between atoms: _196  and  _197
REMARK   82  A    between atoms: _197  and  _198
REMARK   83  A    between atoms: _203  and  _205
REMARK   84  A    between atoms: _205  and  _206
REMARK   85  A    between atoms: _208  and  _210
REMARK   86  A    between atoms: _210  and  _211
REMARK   87  A    between atoms: _210  and  _213
REMARK   88  A    between atoms: _213  and  _214
REMARK   89  A    between atoms: _214  and  _215
REMARK   90  A    between atoms: _215  and  _216
REMARK   91  A    between atoms: _216  and  _217
REMARK   92  A    between atoms: _221  and  _223
REMARK   93  A    between atoms: _223  and  _224
REMARK   94  A    between atoms: _223  and  _226
REMARK   95  A    between atoms: _226  and  _227
REMARK   96  A    between atoms: _237  and  _239
REMARK   97  A    between atoms: _239  and  _240
REMARK   98  A    between atoms: _239  and  _242
REMARK   99  A    between atoms: _242  and  _243
REMARK  100  A    between atoms: _246  and  _248
REMARK  101  A    between atoms: _248  and  _249
REMARK  102  A    between atoms: _248  and  _251
REMARK  103  A    between atoms: _251  and  _252
REMARK  104  A    between atoms: _252  and  _253
REMARK  105  A    between atoms: _253  and  _254
REMARK  106  A    between atoms: _254  and  _255
REMARK  107  A    between atoms: _259  and  _261
REMARK  108  A    between atoms: _261  and  _262
REMARK  109  A    between atoms: _261  and  _264
REMARK  110  A    between atoms: _264  and  _265
REMARK  111  A    between atoms: _271  and  _273
REMARK  112  A    between atoms: _273  and  _274
REMARK  113  A    between atoms: _273  and  _276
REMARK  114  A    between atoms: _276  and  _277
REMARK  115  A    between atoms: _283  and  _285
REMARK  116  A    between atoms: _285  and  _286
REMARK  117  A    between atoms: _285  and  _288
REMARK  118  A    between atoms: _288  and  _289
REMARK  119  A    between atoms: _292  and  _294
REMARK  120  A    between atoms: _294  and  _295
REMARK  121  A    between atoms: _294  and  _297
REMARK  122  A    between atoms: _297  and  _298
REMARK  123  A    between atoms: _300  and  _302
REMARK  124  A    between atoms: _302  and  _303
REMARK  125  A    between atoms: _302  and  _305
REMARK  126  A    between atoms: _305  and  _306
REMARK  127  A    between atoms: _316  and  _318
REMARK  128  A    between atoms: _318  and  _319
REMARK  129  A    between atoms: _321  and  _323
REMARK  130  A    between atoms: _323  and  _324
REMARK  131  A    between atoms: _323  and  _326
REMARK  132  A    between atoms: _326  and  _327
REMARK  133  A    between atoms: _330  and  _332
REMARK  134  A    between atoms: _332  and  _333
REMARK  135  A    between atoms: _332  and  _335
REMARK  136  A    between atoms: _335  and  _336
REMARK  137  A    between atoms: _339  and  _341
REMARK  138  A    between atoms: _341  and  _342
REMARK  139  A    between atoms: _341  and  _344
REMARK  140  A    between atoms: _344  and  _345
REMARK  141  A    between atoms: _348  and  _350
REMARK  142  A    between atoms: _350  and  _351
REMARK  143  A    between atoms: _354  and  _356
REMARK  144  A    between atoms: _356  and  _357
REMARK  145  A    between atoms: _356  and  _359
REMARK  146  A    between atoms: _359  and  _360
REMARK  147  A    between atoms: _365  and  _366
REMARK  148  A    between atoms: _368  and  _370
REMARK  149  A    between atoms: _370  and  _371
REMARK  150  A    between atoms: _370  and  _373
REMARK  151  A    between atoms: _373  and  _374
REMARK  152  A    between atoms: _374  and  _375
REMARK  153  A    between atoms: _378  and  _380
REMARK  154  A    between atoms: _380  and  _381
REMARK  155  A    between atoms: _380  and  _383
REMARK  156  A    between atoms: _383  and  _384
REMARK  157  A    between atoms: _387  and  _389
REMARK  158  A    between atoms: _389  and  _390
REMARK  159  A    between atoms: _393  and  _395
REMARK  160  A    between atoms: _395  and  _396
REMARK  161  A    between atoms: _395  and  _398
REMARK  162  A    between atoms: _398  and  _399
REMARK  163  A    between atoms: _399  and  _400
REMARK  164  A    between atoms: _400  and  _401
REMARK  165  A    between atoms: _410  and  _412
REMARK  166  A    between atoms: _412  and  _413
REMARK  167  A    between atoms: _412  and  _415
REMARK  168  A    between atoms: _415  and  _416
REMARK  169  A    between atoms: _419  and  _421
REMARK  170  A    between atoms: _421  and  _422
REMARK  171  A    between atoms: _421  and  _424
REMARK  172  A    between atoms: _424  and  _425
REMARK  173  A    between atoms: _435  and  _437
REMARK  174  A    between atoms: _437  and  _438
REMARK  175  A    between atoms: _437  and  _440
REMARK  176  A    between atoms: _440  and  _441
REMARK  177  A    between atoms: _446  and  _447
REMARK  178  A    between atoms: _449  and  _451
REMARK  179  A    between atoms: _451  and  _452
REMARK  180  A    between atoms: _451  and  _454
REMARK  181  A    between atoms: _454  and  _455
REMARK  182  A    between atoms: _455  and  _456
REMARK  183  A    between atoms: _456  and  _457
REMARK  184  A    between atoms: _457  and  _458
REMARK  185  A    between atoms: _462  and  _464
REMARK  186  A    between atoms: _464  and  _465
REMARK  187  A    between atoms: _464  and  _467
REMARK  188  A    between atoms: _467  and  _468
REMARK  189  A    between atoms: _471  and  _473
REMARK  190  A    between atoms: _473  and  _474
REMARK  191  A    between atoms: _473  and  _476
REMARK  192  A    between atoms: _479  and  _481
REMARK  193  A    between atoms: _481  and  _482
REMARK  194  A    between atoms: _481  and  _484
REMARK  195  A    between atoms: _484  and  _485
REMARK  196  A    between atoms: _488  and  _490
REMARK  197  A    between atoms: _490  and  _491
REMARK  198  A    between atoms: _490  and  _493
REMARK  199  A    between atoms: _493  and  _494
REMARK  200  A    between atoms: _496  and  _498
REMARK  201  A    between atoms: _498  and  _499
REMARK  202  A    between atoms: _501  and  _503
REMARK  203  A    between atoms: _503  and  _504
REMARK  204  A    between atoms: _503  and  _506
REMARK  205  A    between atoms: _506  and  _507
REMARK  206  A    between atoms: _510  and  _512
REMARK  207  A    between atoms: _512  and  _513
REMARK  208  A    between atoms: _512  and  _515
REMARK  209  A    between atoms: _515  and  _516
REMARK  210  A    between atoms: _519  and  _521
REMARK  211  A    between atoms: _521  and  _522
REMARK  212  A    between atoms: _521  and  _524
REMARK  213  A    between atoms: _524  and  _525
REMARK  214  A    between atoms: _530  and  _532
REMARK  215  A    between atoms: _532  and  _533
REMARK  216  A    between atoms: _532  and  _535
REMARK  217  A    between atoms: _535  and  _536
REMARK  218  A    between atoms: _539  and  _541
REMARK  219  A    between atoms: _541  and  _542
REMARK  220  A    between atoms: _541  and  _544
REMARK  221  A    between atoms: _544  and  _545
REMARK  222  A    between atoms: _545  and  _546
REMARK  223  A    between atoms: _546  and  _547
REMARK  224  A    between atoms: _556  and  _558
REMARK  225  A    between atoms: _558  and  _559
REMARK  226  A    between atoms: _558  and  _561
REMARK  227  A    between atoms: _561  and  _562
REMARK  228  A    between atoms: _562  and  _563
REMARK  229  A    between atoms: _563  and  _564
REMARK  230  A    between atoms: _573  and  _575
REMARK  231  A    between atoms: _575  and  _576
REMARK  232  A    between atoms: _575  and  _578
REMARK  233  A    between atoms: _578  and  _579
REMARK  234  A    between atoms: _581  and  _583
REMARK  235  A    between atoms: _583  and  _584
REMARK  236  A    between atoms: _583  and  _586
REMARK  237  A    between atoms: _586  and  _587
REMARK  238  A    between atoms: _587  and  _588
REMARK  239  A    between atoms: _593  and  _595
REMARK  240  A    between atoms: _595  and  _596
REMARK  241  A    between atoms: _595  and  _598
REMARK  242  A    between atoms: _598  and  _599
REMARK  243  A    between atoms: _601  and  _603
REMARK  244  A    between atoms: _603  and  _604
REMARK  245  A    between atoms: _603  and  _606
REMARK  246  A    between atoms: _606  and  _607
REMARK  247  A    between atoms: _610  and  _612
REMARK  248  A    between atoms: _612  and  _613
REMARK  249  A    between atoms: _612  and  _615
REMARK  250  A    between atoms: _615  and  _616
REMARK  251  A    between atoms: _619  and  _621
REMARK  252  A    between atoms: _621  and  _622
REMARK  253  A    between atoms: _621  and  _624
REMARK  254  A    between atoms: _627  and  _629
REMARK  255  A    between atoms: _629  and  _630
REMARK  256  A    between atoms: _632  and  _634
REMARK  257  A    between atoms: _634  and  _635
REMARK  258  A    between atoms: _638  and  _640
REMARK  259  A    between atoms: _640  and  _641
REMARK  260  A    between atoms: _640  and  _643
REMARK  261  A    between atoms: _646  and  _648
REMARK  262  A    between atoms: _648  and  _649
REMARK  263  A    between atoms: _648  and  _651
REMARK  264  A    between atoms: _651  and  _652
REMARK  265  A    between atoms: _652  and  _653
REMARK  266  A    between atoms: _655  and  _657
REMARK  267  A    between atoms: _657  and  _658
REMARK  268  A    between atoms: _657  and  _660
REMARK  269  A    between atoms: _660  and  _661
REMARK  270  A    between atoms: _661  and  _662
REMARK                            x       y       z     vdW  Elec       q    Type
REMARK                         _______ _______ _______ _____ _____    ______ ____
ROOT
ATOM      1  CA  GLN A   4       5.744  -9.045  32.779  0.00  0.00    +0.149 C 
ENDROOT
BRANCH   1   2
ATOM      2  C   GLN A   4       4.787  -8.854  33.968  0.00  0.00    +0.241 C 
ATOM      3  N   GLY A   5       5.090  -7.902  34.842  0.00  0.00    -0.295 N 
ATOM      4  H   GLY A   5       5.954  -7.336  34.719  0.00  0.00    +0.150 HD
ATOM      5  O   GLN A   4       3.800  -9.576  34.105  0.00  0.00    -0.273 OA
BRANCH   3   6
ATOM      6  CA  GLY A   5       4.210  -7.653  35.971  0.00  0.00    +0.176 C 
BRANCH   6   7
ATOM      7  C   GLY A   5       4.790  -7.873  37.351  0.00  0.00    +0.243 C 
ATOM      8  N   TYR A   6       4.247  -7.139  38.317  0.00  0.00    -0.297 N 
ATOM      9  H   TYR A   6       3.492  -6.466  38.075  0.00  0.00    +0.150 HD
ATOM     10  O   GLY A   5       5.703  -8.686  37.554  0.00  0.00    -0.273 OA
BRANCH   8  11
ATOM     11  CA  TYR A   6       4.678  -7.249  39.710  0.00  0.00    +0.153 C 
BRANCH  11  12
ATOM     12  C   TYR A   6       3.622  -8.051  40.454  0.00  0.00    +0.241 C 
ATOM     13  N   TYR A   7       4.055  -9.072  41.186  0.00  0.00    -0.298 N 
ATOM     14  H   TYR A   7       5.075  -9.257  41.265  0.00  0.00    +0.150 HD
ATOM     15  O   TYR A   6       2.433  -7.730  40.384  0.00  0.00    -0.273 OA
BRANCH  13  16
ATOM     16  CA  TYR A   7       3.107  -9.932  41.878  0.00  0.00    +0.141 C 
BRANCH  16  17
ATOM     17  C   TYR A   7       3.430 -10.217  43.352  0.00  0.00    +0.227 C 
ATOM     18  O   TYR A   7       4.570 -10.080  43.797  0.00  0.00    -0.286 OA
ENDBRANCH  16  17
BRANCH  16  19
ATOM     19  CB  TYR A   7       2.979 -11.242  41.086  0.00  0.00    +0.054 C 
BRANCH  19  20
ATOM     20  CG  TYR A   7       4.291 -12.000  40.938  0.00  0.00    -0.020 A 
ATOM     21  CD2 TYR A   7       4.732 -12.869  41.937  0.00  0.00    -0.001 A 
ATOM     22  CE2 TYR A   7       5.942 -13.554  41.817  0.00  0.00    +0.036 A 
ATOM     23  CZ  TYR A   7       6.733 -13.366  40.688  0.00  0.00    +0.134 A 
ATOM     24  CE1 TYR A   7       6.324 -12.508  39.677  0.00  0.00    +0.036 A 
ATOM     25  CD1 TYR A   7       5.102 -11.828  39.801  0.00  0.00    -0.001 A 
BRANCH  23  26
ATOM     26  OH  TYR A   7       7.933 -14.034  40.595  0.00  0.00    -0.506 OA
ATOM     27  HH  TYR A   7       8.671 -13.377  40.531  0.00  0.00    +0.292 HD
ENDBRANCH  23  26
ENDBRANCH  19  20
ENDBRANCH  16  19
ENDBRANCH  13  16
ENDBRANCH  11  12
BRANCH  11  28
ATOM     28  CB  TYR A   6       4.800  -5.866  40.336  0.00  0.00    +0.055 C 
BRANCH  28  29
ATOM     29  CG  TYR A   6       5.970  -5.088  39.809  0.00  0.00    -0.020 A 
ATOM     30  CD2 TYR A   6       7.221  -5.211  40.409  0.00  0.00    -0.001 A 
ATOM     31  CE2 TYR A   6       8.327  -4.506  39.939  0.00  0.00    +0.036 A 
ATOM     32  CZ  TYR A   6       8.192  -3.657  38.854  0.00  0.00    +0.134 A 
ATOM     33  CE1 TYR A   6       6.956  -3.509  38.222  0.00  0.00    +0.036 A 
ATOM     34  CD1 TYR A   6       5.841  -4.233  38.706  0.00  0.00    -0.001 A 
BRANCH  32  35
ATOM     35  OH  TYR A   6       9.299  -2.942  38.439  0.00  0.00    -0.506 OA
ATOM     36  HH  TYR A   6       9.056  -2.382  37.660  0.00  0.00    +0.292 HD
ENDBRANCH  32  35
ENDBRANCH  28  29
ENDBRANCH  11  28
ENDBRANCH   8  11
ENDBRANCH   6   7
ENDBRANCH   3   6
ENDBRANCH   1   2
BRANCH   1  38
ATOM     37  C   GLY A   3       6.005  -7.098  31.311  0.00  0.00    +0.243 C 
ATOM     38  N   GLN A   4       6.421  -7.811  32.358  0.00  0.00    -0.297 N 
ATOM     39  H   GLN A   4       7.250  -7.483  32.893  0.00  0.00    +0.150 HD
ATOM     40  O   GLY A   3       5.020  -7.399  30.657  0.00  0.00    -0.273 OA
BRANCH  37  41
ATOM     41  CA  GLY A   3       6.794  -5.846  30.954  0.00  0.00    +0.176 C 
BRANCH  41  44
ATOM     42  C   SER A   2       7.870  -5.074  32.963  0.00  0.00    +0.243 C 
ATOM     43  O   SER A   2       8.773  -5.912  32.838  0.00  0.00    -0.273 OA
ATOM     44  N   GLY A   3       6.871  -4.963  32.100  0.00  0.00    -0.295 N 
ATOM     45  H   GLY A   3       6.139  -4.239  32.246  0.00  0.00    +0.150 HD
BRANCH  42  46
ATOM     46  CA  SER A   2       7.843  -4.115  34.153  0.00  0.00    +0.178 C 
BRANCH  46  49
ATOM     47  C   LYS A   1       8.372  -5.829  35.753  0.00  0.00    +0.238 C 
ATOM     48  O   LYS A   1       7.350  -6.437  35.445  0.00  0.00    -0.274 OA
ATOM     49  N   SER A   2       8.698  -4.670  35.192  0.00  0.00    -0.295 N 
ATOM     50  H   SER A   2       9.556  -4.164  35.492  0.00  0.00    +0.150 HD
BRANCH  47  51
ATOM     51  CA  LYS A   1       9.318  -6.388  36.815  0.00  0.00    +0.145 C 
BRANCH  51  52
ATOM     52  N   LYS A   1       8.706  -7.548  37.449  0.00  0.00    -0.238 NA
ATOM     53  H   LYS A   1       7.844  -7.955  37.034  0.00  0.00    +0.142 HD
ENDBRANCH  51  52
BRANCH  51  54
ATOM     54  CB  LYS A   1      10.629  -6.822  36.152  0.00  0.00    +0.026 C 
BRANCH  54  55
ATOM     55  CG  LYS A   1      10.417  -7.906  35.098  0.00  0.00    -0.000 C 
BRANCH  55  56
ATOM     56  CD  LYS A   1      11.707  -8.271  34.381  0.00  0.00    -0.024 C 
BRANCH  56  57
ATOM     57  CE  LYS A   1      11.423  -9.190  33.201  0.00  0.00    -0.086 C 
BRANCH  57  58
ATOM     58  NZ  LYS A   1      12.647  -9.497  32.394  0.00  0.00    +0.380 N 
ATOM     59  HZ1 LYS A   1      13.351  -9.966  32.999  0.00  0.00    -0.089 HD
ATOM     60  HZ2 LYS A   1      13.044  -8.612  32.019  0.00  0.00    -0.089 HD
ATOM     61  HZ3 LYS A   1      12.392 -10.126  31.606  0.00  0.00    -0.089 HD
ENDBRANCH  57  58
ENDBRANCH  56  57
ENDBRANCH  55  56
ENDBRANCH  54  55
ENDBRANCH  51  54
ENDBRANCH  47  51
ENDBRANCH  46  49
BRANCH  46  62
ATOM     62  CB  SER A   2       8.316  -2.722  33.726  0.00  0.00    +0.166 C 
BRANCH  62  63
ATOM     63  OG  SER A   2       9.608  -2.792  33.158  0.00  0.00    -0.380 OA
ATOM     64  H   SER A   2      10.241  -3.157  33.826  0.00  0.00    +0.211 HD
ENDBRANCH  62  63
ENDBRANCH  46  62
ENDBRANCH  42  46
ENDBRANCH  41  44
ENDBRANCH  37  41
ENDBRANCH   1  38
BRANCH   1  65
ATOM     65  CB  GLN A   4       6.779 -10.117  33.130  0.00  0.00    +0.039 C 
BRANCH  65  66
ATOM     66  CG  GLN A   4       7.750 -10.465  32.000  0.00  0.00    +0.087 C 
BRANCH  66  67
ATOM     67  CD  GLN A   4       8.612 -11.682  32.330  0.00  0.00    +0.219 C 
ATOM     68  OE1 GLN A   4       9.347 -11.699  33.327  0.00  0.00    -0.275 OA
ATOM     69  NE2 GLN A   4       8.522 -12.708  31.493  0.00  0.00    -0.329 N 
ATOM     70 HE21 GLN A   4       9.081 -13.568  31.663  0.00  0.00    +0.145 HD
ATOM     71 HE22 GLN A   4       7.892 -12.652  30.667  0.00  0.00    +0.145 HD
ENDBRANCH  66  67
ENDBRANCH  65  66
ENDBRANCH   1  65
TORSDOF 30
REMARK  Name = ../refined-set-2016/2g94/2g94_pocket.pdb
REMARK  270 active torsions:
REMARK  status: ('A' for Active; 'I' for Inactive)
REMARK    1  A    between atoms: _1  and  _3
REMARK    2  A    between atoms: _3  and  _4
REMARK    3  A    between atoms: _3  and  _6
REMARK    4  A    between atoms: _6  and  _7
REMARK    5  A    between atoms: _7  and  _8
REMARK    6  A    between atoms: _8  and  _9
REMARK    7  A    between atoms: _9  and  _10
REMARK    8  A    between atoms: _14  and  _16
REMARK    9  A    between atoms: _16  and  _17
REMARK   10  A    between atoms: _16  and  _19
REMARK   11  A    between atoms: _19  and  _20
REMARK   12  A    between atoms: _22  and  _24
REMARK   13  A    between atoms: _24  and  _25
REMARK   14  A    between atoms: _27  and  _29
REMARK   15  A    between atoms: _29  and  _30
REMARK   16  A    between atoms: _29  and  _32
REMARK   17  A    between atoms: _32  and  _33
REMARK   18  A    between atoms: _33  and  _34
REMARK   19  A    between atoms: _39  and  _41
REMARK   20  A    between atoms: _41  and  _42
REMARK   21  A    between atoms: _44  and  _46
REMARK   22  A    between atoms: _46  and  _47
REMARK   23  A    between atoms: _46  and  _49
REMARK   24  A    between atoms: _49  and  _50
REMARK   25  A    between atoms: _55  and  _56
REMARK   26  A    between atoms: _58  and  _60
REMARK   27  A    between atoms: _60  and  _61
REMARK   28  A    between atoms: _60  and  _63
REMARK   29  A    between atoms: _63  and  _64
REMARK   30  A    between atoms: _69  and  _70
REMARK   31  A    between atoms: _72  and  _74
REMARK   32  A    between atoms: _74  and  _75
REMARK   33  A    between atoms: _74  and  _77
REMARK   34  A    between atoms: _77  and  _78
REMARK   35  A    between atoms: _81  and  _83
REMARK   36  A    between atoms: _83  and  _84
REMARK   37  A    between atoms: _83  and  _86
REMARK   38  A    between atoms: _89  and  _91
REMARK   39  A    between atoms: _91  and  _92
REMARK   40  A    between atoms: _91  and  _94
REMARK   41  A    between atoms: _94  and  _95
REMARK   42  A    between atoms: _98  and  _100
REMARK   43  A    between atoms: _100  and  _101
REMARK   44  A    between atoms: _100  and  _103
REMARK   45  A    between atoms: _103  and  _104
REMARK   46  A    between atoms: _107  and  _109
REMARK   47  A    between atoms: _109  and  _110
REMARK   48  A    between atoms: _112  and  _114
REMARK   49  A    between atoms: _114  and  _115
REMARK   50  A    between atoms: _114  and  _117
REMARK   51  A    between atoms: _117  and  _118
REMARK   52  A    between atoms: _120  and  _122
REMARK   53  A    between atoms: _122  and  _123
REMARK   54  A    between atoms: _122  and  _125
REMARK   55  A    between atoms: _125  and  _126
REMARK   56  A    between atoms: _128  and  _130
REMARK   57  A    between atoms: _130  and  _131
REMARK   58  A    between atoms: _130  and  _133
REMARK   59  A    between atoms: _133  and  _134
REMARK   60  A    between atoms: _139  and  _141
REMARK   61  A    between atoms: _141  and  _142
REMARK   62  A    between atoms: _141  and  _144
REMARK   63  A    between atoms: _144  and  _145
REMARK   64  A    between atoms: _150  and  _151
REMARK   65  A    between atoms: _153  and  _155
REMARK   66  A    between atoms: _155  and  _156
REMARK   67  A    between atoms: _155  and  _158
REMARK   68  A    between atoms: _162  and  _163
REMARK   69  A    between atoms: _168  and  _170
REMARK   70  A    between atoms: _170  and  _171
REMARK   71  A    between atoms: _170  and  _173
REMARK   72  A    between atoms: _173  and  _174
REMARK   73  A    between atoms: _179  and  _180
REMARK   74  A    between atoms: _182  and  _184
REMARK   75  A    between atoms: _184  and  _185
REMARK   76  A    between atoms: _184  and  _187
REMARK   77  A    between atoms: _187  and  _188
REMARK   78  A    between atoms: _191  and  _193
REMARK   79  A    between atoms: _193  and  _194
REMARK   80  A    between atoms: _193  and  _196
REMARK   81  A    between atoms: _196  and  _197
REMARK   82  A    between atoms: _197  and  _198
REMARK   83  A    between atoms: _203  and  _205
REMARK   84  A    between atoms: _205  and  _206
REMARK   85  A    between atoms: _208  and  _210
REMARK   86  A    between atoms: _210  and  _211
REMARK   87  A    between atoms: _210  and  _213
REMARK   88  A    between atoms: _213  and  _214
REMARK   89  A    between atoms: _214  and  _215
REMARK   90  A    between atoms: _215  and  _216
REMARK   91  A    between atoms: _216  and  _217
REMARK   92  A    between atoms: _221  and  _223
REMARK   93  A    between atoms: _223  and  _224
REMARK   94  A    between atoms: _223  and  _226
REMARK   95  A    between atoms: _226  and  _227
REMARK   96  A    between atoms: _237  and  _239
REMARK   97  A    between atoms: _239  and  _240
REMARK   98  A    between atoms: _239  and  _242
REMARK   99  A    between atoms: _242  and  _243
REMARK  100  A    between atoms: _246  and  _248
REMARK  101  A    between atoms: _248  and  _249
REMARK  102  A    between atoms: _248  and  _251
REMARK  103  A    between atoms: _251  and  _252
REMARK  104  A    between atoms: _252  and  _253
REMARK  105  A    between atoms: _253  and  _254
REMARK  106  A    between atoms: _254  and  _255
REMARK  107  A    between atoms: _259  and  _261
REMARK  108  A    between atoms: _261  and  _262
REMARK  109  A    between atoms: _261  and  _264
REMARK  110  A    between atoms: _264  and  _265
REMARK  111  A    between atoms: _271  and  _273
REMARK  112  A    between atoms: _273  and  _274
REMARK  113  A    between atoms: _273  and  _276
REMARK  114  A    between atoms: _276  and  _277
REMARK  115  A    between atoms: _283  and  _285
REMARK  116  A    between atoms: _285  and  _286
REMARK  117  A    between atoms: _285  and  _288
REMARK  118  A    between atoms: _288  and  _289
REMARK  119  A    between atoms: _292  and  _294
REMARK  120  A    between atoms: _294  and  _295
REMARK  121  A    between atoms: _294  and  _297
REMARK  122  A    between atoms: _297  and  _298
REMARK  123  A    between atoms: _300  and  _302
REMARK  124  A    between atoms: _302  and  _303
REMARK  125  A    between atoms: _302  and  _305
REMARK  126  A    between atoms: _305  and  _306
REMARK  127  A    between atoms: _316  and  _318
REMARK  128  A    between atoms: _318  and  _319
REMARK  129  A    between atoms: _321  and  _323
REMARK  130  A    between atoms: _323  and  _324
REMARK  131  A    between atoms: _323  and  _326
REMARK  132  A    between atoms: _326  and  _327
REMARK  133  A    between atoms: _330  and  _332
REMARK  134  A    between atoms: _332  and  _333
REMARK  135  A    between atoms: _332  and  _335
REMARK  136  A    between atoms: _335  and  _336
REMARK  137  A    between atoms: _339  and  _341
REMARK  138  A    between atoms: _341  and  _342
REMARK  139  A    between atoms: _341  and  _344
REMARK  140  A    between atoms: _344  and  _345
REMARK  141  A    between atoms: _348  and  _350
REMARK  142  A    between atoms: _350  and  _351
REMARK  143  A    between atoms: _354  and  _356
REMARK  144  A    between atoms: _356  and  _357
REMARK  145  A    between atoms: _356  and  _359
REMARK  146  A    between atoms: _359  and  _360
REMARK  147  A    between atoms: _365  and  _366
REMARK  148  A    between atoms: _368  and  _370
REMARK  149  A    between atoms: _370  and  _371
REMARK  150  A    between atoms: _370  and  _373
REMARK  151  A    between atoms: _373  and  _374
REMARK  152  A    between atoms: _374  and  _375
REMARK  153  A    between atoms: _378  and  _380
REMARK  154  A    between atoms: _380  and  _381
REMARK  155  A    between atoms: _380  and  _383
REMARK  156  A    between atoms: _383  and  _384
REMARK  157  A    between atoms: _387  and  _389
REMARK  158  A    between atoms: _389  and  _390
REMARK  159  A    between atoms: _393  and  _395
REMARK  160  A    between atoms: _395  and  _396
REMARK  161  A    between atoms: _395  and  _398
REMARK  162  A    between atoms: _398  and  _399
REMARK  163  A    between atoms: _399  and  _400
REMARK  164  A    between atoms: _400  and  _401
REMARK  165  A    between atoms: _410  and  _412
REMARK  166  A    between atoms: _412  and  _413
REMARK  167  A    between atoms: _412  and  _415
REMARK  168  A    between atoms: _415  and  _416
REMARK  169  A    between atoms: _419  and  _421
REMARK  170  A    between atoms: _421  and  _422
REMARK  171  A    between atoms: _421  and  _424
REMARK  172  A    between atoms: _424  and  _425
REMARK  173  A    between atoms: _435  and  _437
REMARK  174  A    between atoms: _437  and  _438
REMARK  175  A    between atoms: _437  and  _440
REMARK  176  A    between atoms: _440  and  _441
REMARK  177  A    between atoms: _446  and  _447
REMARK  178  A    between atoms: _449  and  _451
REMARK  179  A    between atoms: _451  and  _452
REMARK  180  A    between atoms: _451  and  _454
REMARK  181  A    between atoms: _454  and  _455
REMARK  182  A    between atoms: _455  and  _456
REMARK  183  A    between atoms: _456  and  _457
REMARK  184  A    between atoms: _457  and  _458
REMARK  185  A    between atoms: _462  and  _464
REMARK  186  A    between atoms: _464  and  _465
REMARK  187  A    between atoms: _464  and  _467
REMARK  188  A    between atoms: _467  and  _468
REMARK  189  A    between atoms: _471  and  _473
REMARK  190  A    between atoms: _473  and  _474
REMARK  191  A    between atoms: _473  and  _476
REMARK  192  A    between atoms: _479  and  _481
REMARK  193  A    between atoms: _481  and  _482
REMARK  194  A    between atoms: _481  and  _484
REMARK  195  A    between atoms: _484  and  _485
REMARK  196  A    between atoms: _488  and  _490
REMARK  197  A    between atoms: _490  and  _491
REMARK  198  A    between atoms: _490  and  _493
REMARK  199  A    between atoms: _493  and  _494
REMARK  200  A    between atoms: _496  and  _498
REMARK  201  A    between atoms: _498  and  _499
REMARK  202  A    between atoms: _501  and  _503
REMARK  203  A    between atoms: _503  and  _504
REMARK  204  A    between atoms: _503  and  _506
REMARK  205  A    between atoms: _506  and  _507
REMARK  206  A    between atoms: _510  and  _512
REMARK  207  A    between atoms: _512  and  _513
REMARK  208  A    between atoms: _512  and  _515
REMARK  209  A    between atoms: _515  and  _516
REMARK  210  A    between atoms: _519  and  _521
REMARK  211  A    between atoms: _521  and  _522
REMARK  212  A    between atoms: _521  and  _524
REMARK  213  A    between atoms: _524  and  _525
REMARK  214  A    between atoms: _530  and  _532
REMARK  215  A    between atoms: _532  and  _533
REMARK  216  A    between atoms: _532  and  _535
REMARK  217  A    between atoms: _535  and  _536
REMARK  218  A    between atoms: _539  and  _541
REMARK  219  A    between atoms: _541  and  _542
REMARK  220  A    between atoms: _541  and  _544
REMARK  221  A    between atoms: _544  and  _545
REMARK  222  A    between atoms: _545  and  _546
REMARK  223  A    between atoms: _546  and  _547
REMARK  224  A    between atoms: _556  and  _558
REMARK  225  A    between atoms: _558  and  _559
REMARK  226  A    between atoms: _558  and  _561
REMARK  227  A    between atoms: _561  and  _562
REMARK  228  A    between atoms: _562  and  _563
REMARK  229  A    between atoms: _563  and  _564
REMARK  230  A    between atoms: _573  and  _575
REMARK  231  A    between atoms: _575  and  _576
REMARK  232  A    between atoms: _575  and  _578
REMARK  233  A    between atoms: _578  and  _579
REMARK  234  A    between atoms: _581  and  _583
REMARK  235  A    between atoms: _583  and  _584
REMARK  236  A    between atoms: _583  and  _586
REMARK  237  A    between atoms: _586  and  _587
REMARK  238  A    between atoms: _587  and  _588
REMARK  239  A    between atoms: _593  and  _595
REMARK  240  A    between atoms: _595  and  _596
REMARK  241  A    between atoms: _595  and  _598
REMARK  242  A    between atoms: _598  and  _599
REMARK  243  A    between atoms: _601  and  _603
REMARK  244  A    between atoms: _603  and  _604
REMARK  245  A    between atoms: _603  and  _606
REMARK  246  A    between atoms: _606  and  _607
REMARK  247  A    between atoms: _610  and  _612
REMARK  248  A    between atoms: _612  and  _613
REMARK  249  A    between atoms: _612  and  _615
REMARK  250  A    between atoms: _615  and  _616
REMARK  251  A    between atoms: _619  and  _621
REMARK  252  A    between atoms: _621  and  _622
REMARK  253  A    between atoms: _621  and  _624
REMARK  254  A    between atoms: _627  and  _629
REMARK  255  A    between atoms: _629  and  _630
REMARK  256  A    between atoms: _632  and  _634
REMARK  257  A    between atoms: _634  and  _635
REMARK  258  A    between atoms: _638  and  _640
REMARK  259  A    between atoms: _640  and  _641
REMARK  260  A    between atoms: _640  and  _643
REMARK  261  A    between atoms: _646  and  _648
REMARK  262  A    between atoms: _648  and  _649
REMARK  263  A    between atoms: _648  and  _651
REMARK  264  A    between atoms: _651  and  _652
REMARK  265  A    between atoms: _652  and  _653
REMARK  266  A    between atoms: _655  and  _657
REMARK  267  A    between atoms: _657  and  _658
REMARK  268  A    between atoms: _657  and  _660
REMARK  269  A    between atoms: _660  and  _661
REMARK  270  A    between atoms: _661  and  _662
REMARK                            x       y       z     vdW  Elec       q    Type
REMARK                         _______ _______ _______ _____ _____    ______ ____
ROOT
ATOM      1  C   THR A   4      -5.606  -0.540  39.306  0.00  0.00    +0.243 C 
ATOM      2  O   THR A   4      -6.463   0.308  39.551  0.00  0.00    -0.273 OA
ATOM      3  N   GLY A   5      -5.457  -1.096  38.105  0.00  0.00    -0.295 N 
ATOM      4  H   GLY A   5      -4.744  -1.840  37.965  0.00  0.00    +0.150 HD
ENDROOT
BRANCH   1   5
ATOM      5  CA  THR A   4      -4.691  -1.043  40.404  0.00  0.00    +0.176 C 
BRANCH   5   8
ATOM      6  C   ASP A   3      -4.346  -3.348  39.814  0.00  0.00    +0.241 C 
ATOM      7  O   ASP A   3      -5.525  -3.605  40.079  0.00  0.00    -0.273 OA
ATOM      8  N   THR A   4      -3.842  -2.124  39.934  0.00  0.00    -0.295 N 
ATOM      9  H   THR A   4      -2.847  -1.941  39.693  0.00  0.00    +0.150 HD
BRANCH   6  10
ATOM     10  CA  ASP A   3      -3.400  -4.437  39.321  0.00  0.00    +0.160 C 
BRANCH  10  12
ATOM     11  C   VAL A   2      -1.518  -5.509  40.467  0.00  0.00    +0.241 C 
ATOM     12  N   ASP A   3      -2.836  -5.306  40.365  0.00  0.00    -0.297 N 
ATOM     13  H   ASP A   3      -3.476  -5.773  41.039  0.00  0.00    +0.150 HD
ATOM     14  O   VAL A   2      -0.690  -4.947  39.747  0.00  0.00    -0.273 OA
BRANCH  11  15
ATOM     15  CA  VAL A   2      -1.041  -6.461  41.545  0.00  0.00    +0.148 C 
BRANCH  15  17
ATOM     16  C   LEU A   1      -1.163  -8.662  40.512  0.00  0.00    +0.238 C 
ATOM     17  N   VAL A   2      -0.434  -7.612  40.875  0.00  0.00    -0.297 N 
ATOM     18  H   VAL A   2       0.587  -7.608  40.679  0.00  0.00    +0.150 HD
ATOM     19  O   LEU A   1      -2.369  -8.717  40.697  0.00  0.00    -0.274 OA
BRANCH  16  20
ATOM     20  CA  LEU A   1      -0.441  -9.803  39.804  0.00  0.00    +0.145 C 
BRANCH  20  21
ATOM     21  N   LEU A   1      -0.842 -11.100  40.363  0.00  0.00    -0.238 NA
ATOM     22  H   LEU A   1      -1.363 -11.764  39.756  0.00  0.00    +0.142 HD
ENDBRANCH  20  21
BRANCH  20  23
ATOM     23  CB  LEU A   1      -0.809  -9.744  38.319  0.00  0.00    +0.026 C 
BRANCH  23  24
ATOM     24  CG  LEU A   1      -0.452  -8.411  37.660  0.00  0.00    +0.002 C 
ATOM     25  CD2 LEU A   1       0.933  -8.514  37.043  0.00  0.00    +0.000 C 
ATOM     26  CD1 LEU A   1      -1.454  -8.067  36.624  0.00  0.00    +0.000 C 
ENDBRANCH  23  24
ENDBRANCH  20  23
ENDBRANCH  16  20
ENDBRANCH  15  17
BRANCH  15  27
ATOM     27  CB  VAL A   2      -0.008  -5.743  42.430  0.00  0.00    +0.027 C 
ATOM     28  CG2 VAL A   2       0.436  -6.679  43.530  0.00  0.00    +0.002 C 
ATOM     29  CG1 VAL A   2      -0.602  -4.451  42.999  0.00  0.00    +0.002 C 
ENDBRANCH  15  27
ENDBRANCH  11  15
ENDBRANCH  10  12
BRANCH  10  30
ATOM     30  CB  ASP A   3      -4.122  -5.304  38.272  0.00  0.00    +0.143 C 
BRANCH  30  31
ATOM     31  CG  ASP A   3      -4.604  -4.494  37.072  0.00  0.00    +0.367 C 
ATOM     32  OD2 ASP A   3      -3.844  -3.618  36.596  0.00  0.00    -0.246 OA
ATOM     33  OD1 ASP A   3      -5.726  -4.739  36.595  0.00  0.00    -0.246 OA
ENDBRANCH  30  31
ENDBRANCH  10  30
ENDBRANCH   6  10
ENDBRANCH   5   8
BRANCH   5  34
ATOM     34  CB  THR A   4      -3.859   0.135  40.987  0.00  0.00    +0.137 C 
ATOM     35  CG2 THR A   4      -3.076  -0.348  42.213  0.00  0.00    +0.034 C 
BRANCH  34  36
ATOM     36  OG1 THR A   4      -2.945   0.645  40.002  0.00  0.00    -0.382 OA
ATOM     37  HG1 THR A   4      -3.454   0.969  39.217  0.00  0.00    +0.210 HD
ENDBRANCH  34  36
ENDBRANCH   5  34
ENDBRANCH   1   5
BRANCH   3  38
ATOM     38  CA  GLY A   5      -6.285  -0.670  36.987  0.00  0.00    +0.176 C 
BRANCH  38  39
ATOM     39  C   GLY A   5      -7.569  -1.469  36.774  0.00  0.00    +0.243 C 
ATOM     40  N   SER A   6      -7.855  -2.419  37.664  0.00  0.00    -0.295 N 
ATOM     41  H   SER A   6      -7.197  -2.599  38.449  0.00  0.00    +0.150 HD
ATOM     42  O   GLY A   5      -8.295  -1.228  35.801  0.00  0.00    -0.273 OA
BRANCH  40  43
ATOM     43  CA  SER A   6      -9.080  -3.213  37.555  0.00  0.00    +0.178 C 
BRANCH  43  44
ATOM     44  C   SER A   6      -9.618  -3.553  38.944  0.00  0.00    +0.243 C 
ATOM     45  O   SER A   6      -8.981  -3.244  39.952  0.00  0.00    -0.273 OA
ATOM     46  N   SER A   7     -10.767  -4.219  38.997  0.00  0.00    -0.295 N 
ATOM     47  H   SER A   7     -11.232  -4.526  38.119  0.00  0.00    +0.150 HD
BRANCH  46  48
ATOM     48  CA  SER A   7     -11.377  -4.520  40.291  0.00  0.00    +0.178 C 
BRANCH  48  49
ATOM     49  C   SER A   7     -11.828  -5.965  40.537  0.00  0.00    +0.243 C 
ATOM     50  O   SER A   7     -12.554  -6.232  41.493  0.00  0.00    -0.273 OA
ATOM     51  N   ASN A   8     -11.394  -6.895  39.694  0.00  0.00    -0.298 N 
ATOM     52  H   ASN A   8     -10.789  -6.618  38.894  0.00  0.00    +0.150 HD
BRANCH  51  53
ATOM     53  CA  ASN A   8     -11.751  -8.296  39.871  0.00  0.00    +0.146 C 
BRANCH  53  54
ATOM     54  C   ASN A   8     -10.591  -9.138  40.378  0.00  0.00    +0.227 C 
ATOM     55  O   ASN A   8      -9.461  -8.994  39.914  0.00  0.00    -0.286 OA
ENDBRANCH  53  54
BRANCH  53  56
ATOM     56  CB  ASN A   8     -12.237  -8.916  38.548  0.00  0.00    +0.112 C 
BRANCH  56  57
ATOM     57  CG  ASN A   8     -13.654  -8.525  38.204  0.00  0.00    +0.222 C 
ATOM     58  ND2 ASN A   8     -14.615  -9.396  38.543  0.00  0.00    -0.329 N 
ATOM     59 HD21 ASN A   8     -14.365 -10.291  39.010  0.00  0.00    +0.145 HD
ATOM     60 HD22 ASN A   8     -15.611  -9.177  38.339  0.00  0.00    +0.145 HD
ATOM     61  OD1 ASN A   8     -13.893  -7.456  37.652  0.00  0.00    -0.275 OA
ENDBRANCH  56  57
ENDBRANCH  53  56
ENDBRANCH  51  53
ENDBRANCH  48  49
BRANCH  48  62
ATOM     62  CB  SER A   7     -12.553  -3.559  40.506  0.00  0.00    +0.166 C 
BRANCH  62  63
ATOM     63  OG  SER A   7     -12.126  -2.210  40.340  0.00  0.00    -0.380 OA
ATOM     64  H   SER A   7     -12.894  -1.602  40.482  0.00  0.00    +0.211 HD
ENDBRANCH  62  63
ENDBRANCH  48  62
ENDBRANCH  46  48
ENDBRANCH  43  44
BRANCH  43  65
ATOM     65  CB  SER A   6      -8.845  -4.498  36.758  0.00  0.00    +0.166 C 
BRANCH  65  66
ATOM     66  OG  SER A   6      -8.011  -5.401  37.464  0.00  0.00    -0.380 OA
ATOM     67  H   SER A   6      -7.135  -4.973  37.636  0.00  0.00    +0.211 HD
ENDBRANCH  65  66
ENDBRANCH  43  65
ENDBRANCH  40  43
ENDBRANCH  38  39
ENDBRANCH   3  38
TORSDOF 29
REMARK  Name = ../refined-set-2016/2g94/2g94_pocket.pdb
REMARK  270 active torsions:
REMARK  status: ('A' for Active; 'I' for Inactive)
REMARK    1  A    between atoms: _1  and  _3
REMARK    2  A    between atoms: _3  and  _4
REMARK    3  A    between atoms: _3  and  _6
REMARK    4  A    between atoms: _6  and  _7
REMARK    5  A    between atoms: _7  and  _8
REMARK    6  A    between atoms: _8  and  _9
REMARK    7  A    between atoms: _9  and  _10
REMARK    8  A    between atoms: _14  and  _16
REMARK    9  A    between atoms: _16  and  _17
REMARK   10  A    between atoms: _16  and  _19
REMARK   11  A    between atoms: _19  and  _20
REMARK   12  A    between atoms: _22  and  _24
REMARK   13  A    between atoms: _24  and  _25
REMARK   14  A    between atoms: _27  and  _29
REMARK   15  A    between atoms: _29  and  _30
REMARK   16  A    between atoms: _29  and  _32
REMARK   17  A    between atoms: _32  and  _33
REMARK   18  A    between atoms: _33  and  _34
REMARK   19  A    between atoms: _39  and  _41
REMARK   20  A    between atoms: _41  and  _42
REMARK   21  A    between atoms: _44  and  _46
REMARK   22  A    between atoms: _46  and  _47
REMARK   23  A    between atoms: _46  and  _49
REMARK   24  A    between atoms: _49  and  _50
REMARK   25  A    between atoms: _55  and  _56
REMARK   26  A    between atoms: _58  and  _60
REMARK   27  A    between atoms: _60  and  _61
REMARK   28  A    between atoms: _60  and  _63
REMARK   29  A    between atoms: _63  and  _64
REMARK   30  A    between atoms: _69  and  _70
REMARK   31  A    between atoms: _72  and  _74
REMARK   32  A    between atoms: _74  and  _75
REMARK   33  A    between atoms: _74  and  _77
REMARK   34  A    between atoms: _77  and  _78
REMARK   35  A    between atoms: _81  and  _83
REMARK   36  A    between atoms: _83  and  _84
REMARK   37  A    between atoms: _83  and  _86
REMARK   38  A    between atoms: _89  and  _91
REMARK   39  A    between atoms: _91  and  _92
REMARK   40  A    between atoms: _91  and  _94
REMARK   41  A    between atoms: _94  and  _95
REMARK   42  A    between atoms: _98  and  _100
REMARK   43  A    between atoms: _100  and  _101
REMARK   44  A    between atoms: _100  and  _103
REMARK   45  A    between atoms: _103  and  _104
REMARK   46  A    between atoms: _107  and  _109
REMARK   47  A    between atoms: _109  and  _110
REMARK   48  A    between atoms: _112  and  _114
REMARK   49  A    between atoms: _114  and  _115
REMARK   50  A    between atoms: _114  and  _117
REMARK   51  A    between atoms: _117  and  _118
REMARK   52  A    between atoms: _120  and  _122
REMARK   53  A    between atoms: _122  and  _123
REMARK   54  A    between atoms: _122  and  _125
REMARK   55  A    between atoms: _125  and  _126
REMARK   56  A    between atoms: _128  and  _130
REMARK   57  A    between atoms: _130  and  _131
REMARK   58  A    between atoms: _130  and  _133
REMARK   59  A    between atoms: _133  and  _134
REMARK   60  A    between atoms: _139  and  _141
REMARK   61  A    between atoms: _141  and  _142
REMARK   62  A    between atoms: _141  and  _144
REMARK   63  A    between atoms: _144  and  _145
REMARK   64  A    between atoms: _150  and  _151
REMARK   65  A    between atoms: _153  and  _155
REMARK   66  A    between atoms: _155  and  _156
REMARK   67  A    between atoms: _155  and  _158
REMARK   68  A    between atoms: _162  and  _163
REMARK   69  A    between atoms: _168  and  _170
REMARK   70  A    between atoms: _170  and  _171
REMARK   71  A    between atoms: _170  and  _173
REMARK   72  A    between atoms: _173  and  _174
REMARK   73  A    between atoms: _179  and  _180
REMARK   74  A    between atoms: _182  and  _184
REMARK   75  A    between atoms: _184  and  _185
REMARK   76  A    between atoms: _184  and  _187
REMARK   77  A    between atoms: _187  and  _188
REMARK   78  A    between atoms: _191  and  _193
REMARK   79  A    between atoms: _193  and  _194
REMARK   80  A    between atoms: _193  and  _196
REMARK   81  A    between atoms: _196  and  _197
REMARK   82  A    between atoms: _197  and  _198
REMARK   83  A    between atoms: _203  and  _205
REMARK   84  A    between atoms: _205  and  _206
REMARK   85  A    between atoms: _208  and  _210
REMARK   86  A    between atoms: _210  and  _211
REMARK   87  A    between atoms: _210  and  _213
REMARK   88  A    between atoms: _213  and  _214
REMARK   89  A    between atoms: _214  and  _215
REMARK   90  A    between atoms: _215  and  _216
REMARK   91  A    between atoms: _216  and  _217
REMARK   92  A    between atoms: _221  and  _223
REMARK   93  A    between atoms: _223  and  _224
REMARK   94  A    between atoms: _223  and  _226
REMARK   95  A    between atoms: _226  and  _227
REMARK   96  A    between atoms: _237  and  _239
REMARK   97  A    between atoms: _239  and  _240
REMARK   98  A    between atoms: _239  and  _242
REMARK   99  A    between atoms: _242  and  _243
REMARK  100  A    between atoms: _246  and  _248
REMARK  101  A    between atoms: _248  and  _249
REMARK  102  A    between atoms: _248  and  _251
REMARK  103  A    between atoms: _251  and  _252
REMARK  104  A    between atoms: _252  and  _253
REMARK  105  A    between atoms: _253  and  _254
REMARK  106  A    between atoms: _254  and  _255
REMARK  107  A    between atoms: _259  and  _261
REMARK  108  A    between atoms: _261  and  _262
REMARK  109  A    between atoms: _261  and  _264
REMARK  110  A    between atoms: _264  and  _265
REMARK  111  A    between atoms: _271  and  _273
REMARK  112  A    between atoms: _273  and  _274
REMARK  113  A    between atoms: _273  and  _276
REMARK  114  A    between atoms: _276  and  _277
REMARK  115  A    between atoms: _283  and  _285
REMARK  116  A    between atoms: _285  and  _286
REMARK  117  A    between atoms: _285  and  _288
REMARK  118  A    between atoms: _288  and  _289
REMARK  119  A    between atoms: _292  and  _294
REMARK  120  A    between atoms: _294  and  _295
REMARK  121  A    between atoms: _294  and  _297
REMARK  122  A    between atoms: _297  and  _298
REMARK  123  A    between atoms: _300  and  _302
REMARK  124  A    between atoms: _302  and  _303
REMARK  125  A    between atoms: _302  and  _305
REMARK  126  A    between atoms: _305  and  _306
REMARK  127  A    between atoms: _316  and  _318
REMARK  128  A    between atoms: _318  and  _319
REMARK  129  A    between atoms: _321  and  _323
REMARK  130  A    between atoms: _323  and  _324
REMARK  131  A    between atoms: _323  and  _326
REMARK  132  A    between atoms: _326  and  _327
REMARK  133  A    between atoms: _330  and  _332
REMARK  134  A    between atoms: _332  and  _333
REMARK  135  A    between atoms: _332  and  _335
REMARK  136  A    between atoms: _335  and  _336
REMARK  137  A    between atoms: _339  and  _341
REMARK  138  A    between atoms: _341  and  _342
REMARK  139  A    between atoms: _341  and  _344
REMARK  140  A    between atoms: _344  and  _345
REMARK  141  A    between atoms: _348  and  _350
REMARK  142  A    between atoms: _350  and  _351
REMARK  143  A    between atoms: _354  and  _356
REMARK  144  A    between atoms: _356  and  _357
REMARK  145  A    between atoms: _356  and  _359
REMARK  146  A    between atoms: _359  and  _360
REMARK  147  A    between atoms: _365  and  _366
REMARK  148  A    between atoms: _368  and  _370
REMARK  149  A    between atoms: _370  and  _371
REMARK  150  A    between atoms: _370  and  _373
REMARK  151  A    between atoms: _373  and  _374
REMARK  152  A    between atoms: _374  and  _375
REMARK  153  A    between atoms: _378  and  _380
REMARK  154  A    between atoms: _380  and  _381
REMARK  155  A    between atoms: _380  and  _383
REMARK  156  A    between atoms: _383  and  _384
REMARK  157  A    between atoms: _387  and  _389
REMARK  158  A    between atoms: _389  and  _390
REMARK  159  A    between atoms: _393  and  _395
REMARK  160  A    between atoms: _395  and  _396
REMARK  161  A    between atoms: _395  and  _398
REMARK  162  A    between atoms: _398  and  _399
REMARK  163  A    between atoms: _399  and  _400
REMARK  164  A    between atoms: _400  and  _401
REMARK  165  A    between atoms: _410  and  _412
REMARK  166  A    between atoms: _412  and  _413
REMARK  167  A    between atoms: _412  and  _415
REMARK  168  A    between atoms: _415  and  _416
REMARK  169  A    between atoms: _419  and  _421
REMARK  170  A    between atoms: _421  and  _422
REMARK  171  A    between atoms: _421  and  _424
REMARK  172  A    between atoms: _424  and  _425
REMARK  173  A    between atoms: _435  and  _437
REMARK  174  A    between atoms: _437  and  _438
REMARK  175  A    between atoms: _437  and  _440
REMARK  176  A    between atoms: _440  and  _441
REMARK  177  A    between atoms: _446  and  _447
REMARK  178  A    between atoms: _449  and  _451
REMARK  179  A    between atoms: _451  and  _452
REMARK  180  A    between atoms: _451  and  _454
REMARK  181  A    between atoms: _454  and  _455
REMARK  182  A    between atoms: _455  and  _456
REMARK  183  A    between atoms: _456  and  _457
REMARK  184  A    between atoms: _457  and  _458
REMARK  185  A    between atoms: _462  and  _464
REMARK  186  A    between atoms: _464  and  _465
REMARK  187  A    between atoms: _464  and  _467
REMARK  188  A    between atoms: _467  and  _468
REMARK  189  A    between atoms: _471  and  _473
REMARK  190  A    between atoms: _473  and  _474
REMARK  191  A    between atoms: _473  and  _476
REMARK  192  A    between atoms: _479  and  _481
REMARK  193  A    between atoms: _481  and  _482
REMARK  194  A    between atoms: _481  and  _484
REMARK  195  A    between atoms: _484  and  _485
REMARK  196  A    between atoms: _488  and  _490
REMARK  197  A    between atoms: _490  and  _491
REMARK  198  A    between atoms: _490  and  _493
REMARK  199  A    between atoms: _493  and  _494
REMARK  200  A    between atoms: _496  and  _498
REMARK  201  A    between atoms: _498  and  _499
REMARK  202  A    between atoms: _501  and  _503
REMARK  203  A    between atoms: _503  and  _504
REMARK  204  A    between atoms: _503  and  _506
REMARK  205  A    between atoms: _506  and  _507
REMARK  206  A    between atoms: _510  and  _512
REMARK  207  A    between atoms: _512  and  _513
REMARK  208  A    between atoms: _512  and  _515
REMARK  209  A    between atoms: _515  and  _516
REMARK  210  A    between atoms: _519  and  _521
REMARK  211  A    between atoms: _521  and  _522
REMARK  212  A    between atoms: _521  and  _524
REMARK  213  A    between atoms: _524  and  _525
REMARK  214  A    between atoms: _530  and  _532
REMARK  215  A    between atoms: _532  and  _533
REMARK  216  A    between atoms: _532  and  _535
REMARK  217  A    between atoms: _535  and  _536
REMARK  218  A    between atoms: _539  and  _541
REMARK  219  A    between atoms: _541  and  _542
REMARK  220  A    between atoms: _541  and  _544
REMARK  221  A    between atoms: _544  and  _545
REMARK  222  A    between atoms: _545  and  _546
REMARK  223  A    between atoms: _546  and  _547
REMARK  224  A    between atoms: _556  and  _558
REMARK  225  A    between atoms: _558  and  _559
REMARK  226  A    between atoms: _558  and  _561
REMARK  227  A    between atoms: _561  and  _562
REMARK  228  A    between atoms: _562  and  _563
REMARK  229  A    between atoms: _563  and  _564
REMARK  230  A    between atoms: _573  and  _575
REMARK  231  A    between atoms: _575  and  _576
REMARK  232  A    between atoms: _575  and  _578
REMARK  233  A    between atoms: _578  and  _579
REMARK  234  A    between atoms: _581  and  _583
REMARK  235  A    between atoms: _583  and  _584
REMARK  236  A    between atoms: _583  and  _586
REMARK  237  A    between atoms: _586  and  _587
REMARK  238  A    between atoms: _587  and  _588
REMARK  239  A    between atoms: _593  and  _595
REMARK  240  A    between atoms: _595  and  _596
REMARK  241  A    between atoms: _595  and  _598
REMARK  242  A    between atoms: _598  and  _599
REMARK  243  A    between atoms: _601  and  _603
REMARK  244  A    between atoms: _603  and  _604
REMARK  245  A    between atoms: _603  and  _606
REMARK  246  A    between atoms: _606  and  _607
REMARK  247  A    between atoms: _610  and  _612
REMARK  248  A    between atoms: _612  and  _613
REMARK  249  A    between atoms: _612  and  _615
REMARK  250  A    between atoms: _615  and  _616
REMARK  251  A    between atoms: _619  and  _621
REMARK  252  A    between atoms: _621  and  _622
REMARK  253  A    between atoms: _621  and  _624
REMARK  254  A    between atoms: _627  and  _629
REMARK  255  A    between atoms: _629  and  _630
REMARK  256  A    between atoms: _632  and  _634
REMARK  257  A    between atoms: _634  and  _635
REMARK  258  A    between atoms: _638  and  _640
REMARK  259  A    between atoms: _640  and  _641
REMARK  260  A    between atoms: _640  and  _643
REMARK  261  A    between atoms: _646  and  _648
REMARK  262  A    between atoms: _648  and  _649
REMARK  263  A    between atoms: _648  and  _651
REMARK  264  A    between atoms: _651  and  _652
REMARK  265  A    between atoms: _652  and  _653
REMARK  266  A    between atoms: _655  and  _657
REMARK  267  A    between atoms: _657  and  _658
REMARK  268  A    between atoms: _657  and  _660
REMARK  269  A    between atoms: _660  and  _661
REMARK  270  A    between atoms: _661  and  _662
REMARK                            x       y       z     vdW  Elec       q    Type
REMARK                         _______ _______ _______ _____ _____    ______ ____
ROOT
ATOM      1  CA  THR A   5      -6.813  -2.789  27.259  0.00  0.00    +0.176 C 
ENDROOT
BRANCH   1   2
ATOM      2  C   THR A   5      -6.193  -3.813  26.316  0.00  0.00    +0.243 C 
ATOM      3  N   GLN A   6      -5.501  -4.782  26.889  0.00  0.00    -0.297 N 
ATOM      4  H   GLN A   6      -5.365  -4.765  27.920  0.00  0.00    +0.150 HD
ATOM      5  O   THR A   5      -6.349  -3.736  25.109  0.00  0.00    -0.273 OA
BRANCH   3   6
ATOM      6  CA  GLN A   6      -4.924  -5.872  26.118  0.00  0.00    +0.149 C 
BRANCH   6   7
ATOM      7  C   GLN A   6      -5.094  -7.131  26.942  0.00  0.00    +0.241 C 
ATOM      8  O   GLN A   6      -4.553  -7.221  28.044  0.00  0.00    -0.273 OA
ATOM      9  N   GLY A   7      -5.815  -8.108  26.404  0.00  0.00    -0.295 N 
ATOM     10  H   GLY A   7      -6.242  -7.980  25.464  0.00  0.00    +0.150 HD
BRANCH   9  11
ATOM     11  CA  GLY A   7      -6.008  -9.351  27.122  0.00  0.00    +0.176 C 
BRANCH  11  12
ATOM     12  C   GLY A   7      -7.424  -9.439  27.647  0.00  0.00    +0.243 C 
ATOM     13  N   LYS A   8      -7.885 -10.656  27.920  0.00  0.00    -0.297 N 
ATOM     14  H   LYS A   8      -7.272 -11.482  27.768  0.00  0.00    +0.150 HD
ATOM     15  O   GLY A   7      -8.092  -8.421  27.801  0.00  0.00    -0.273 OA
BRANCH  13  16
ATOM     16  CA  LYS A   8      -9.236 -10.849  28.428  0.00  0.00    +0.149 C 
BRANCH  16  17
ATOM     17  C   LYS A   8      -9.381 -12.292  28.869  0.00  0.00    +0.241 C 
ATOM     18  N   TRP A   9     -10.389 -12.553  29.691  0.00  0.00    -0.298 N 
ATOM     19  H   TRP A   9     -11.008 -11.779  30.005  0.00  0.00    +0.150 HD
ATOM     20  O   LYS A   8      -8.583 -13.155  28.488  0.00  0.00    -0.273 OA
BRANCH  18  21
ATOM     21  CA  TRP A   9     -10.641 -13.910  30.160  0.00  0.00    +0.141 C 
BRANCH  21  22
ATOM     22  C   TRP A   9     -12.092 -14.079  30.574  0.00  0.00    +0.227 C 
ATOM     23  O   TRP A   9     -12.803 -13.099  30.806  0.00  0.00    -0.286 OA
ENDBRANCH  21  22
BRANCH  21  24
ATOM     24  CB  TRP A   9      -9.718 -14.286  31.344  0.00  0.00    +0.056 C 
BRANCH  24  25
ATOM     25  CG  TRP A   9      -9.738 -13.340  32.526  0.00  0.00    -0.002 A 
ATOM     26  CD2 TRP A   9     -10.758 -13.230  33.531  0.00  0.00    +0.013 A 
ATOM     27  CE2 TRP A   9     -10.373 -12.189  34.407  0.00  0.00    +0.056 A 
ATOM     28  CZ2 TRP A   9     -11.150 -11.805  35.508  0.00  0.00    +0.017 A 
ATOM     29  CH2 TRP A   9     -12.324 -12.487  35.725  0.00  0.00    +0.001 A 
ATOM     30  CZ3 TRP A   9     -12.735 -13.531  34.876  0.00  0.00    +0.000 A 
ATOM     31  NE1 TRP A   9      -9.172 -11.697  33.962  0.00  0.00    -0.352 N 
ATOM     32  HE1 TRP A   9      -8.633 -10.925  34.405  0.00  0.00    +0.166 HD
ATOM     33  CE3 TRP A   9     -11.962 -13.911  33.776  0.00  0.00    +0.001 A 
ATOM     34  CD1 TRP A   9      -8.796 -12.391  32.834  0.00  0.00    +0.068 A 
ENDBRANCH  24  25
ENDBRANCH  21  24
ENDBRANCH  18  21
ENDBRANCH  16  17
BRANCH  16  35
ATOM     35  CB  LYS A   8     -10.260 -10.537  27.335  0.00  0.00    +0.029 C 
BRANCH  35  36
ATOM     36  CG  LYS A   8     -10.123 -11.445  26.129  0.00  0.00    +0.000 C 
BRANCH  36  37
ATOM     37  CD  LYS A   8     -11.093 -11.094  25.024  0.00  0.00    -0.024 C 
BRANCH  37  38
ATOM     38  CE  LYS A   8     -10.850 -12.016  23.835  0.00  0.00    -0.086 C 
BRANCH  38  39
ATOM     39  NZ  LYS A   8     -11.730 -11.714  22.669  0.00  0.00    +0.380 N 
ATOM     40  HZ1 LYS A   8     -12.725 -11.819  22.951  0.00  0.00    -0.089 HD
ATOM     41  HZ2 LYS A   8     -11.560 -10.738  22.351  0.00  0.00    -0.089 HD
ATOM     42  HZ3 LYS A   8     -11.516 -12.374  21.895  0.00  0.00    -0.089 HD
ENDBRANCH  38  39
ENDBRANCH  37  38
ENDBRANCH  36  37
ENDBRANCH  35  36
ENDBRANCH  16  35
ENDBRANCH  13  16
ENDBRANCH  11  12
ENDBRANCH   9  11
ENDBRANCH   6   7
BRANCH   6  43
ATOM     43  CB  GLN A   6      -3.430  -5.673  25.881  0.00  0.00    +0.039 C 
BRANCH  43  44
ATOM     44  CG  GLN A   6      -3.052  -5.293  24.477  0.00  0.00    +0.087 C 
BRANCH  44  45
ATOM     45  CD  GLN A   6      -1.599  -5.637  24.189  0.00  0.00    +0.219 C 
ATOM     46  OE1 GLN A   6      -1.221  -6.815  24.145  0.00  0.00    -0.275 OA
ATOM     47  NE2 GLN A   6      -0.774  -4.615  24.010  0.00  0.00    -0.329 N 
ATOM     48 HE21 GLN A   6      -1.135  -3.641  24.056  0.00  0.00    +0.145 HD
ATOM     49 HE22 GLN A   6       0.235  -4.787  23.824  0.00  0.00    +0.145 HD
ENDBRANCH  44  45
ENDBRANCH  43  44
ENDBRANCH   6  43
ENDBRANCH   3   6
ENDBRANCH   1   2
BRANCH   1  51
ATOM     50  C   TYR A   4      -8.091  -4.587  28.243  0.00  0.00    +0.241 C 
ATOM     51  N   THR A   5      -7.313  -3.520  28.419  0.00  0.00    -0.295 N 
ATOM     52  H   THR A   5      -7.063  -3.209  29.379  0.00  0.00    +0.150 HD
ATOM     53  O   TYR A   4      -8.406  -4.998  27.124  0.00  0.00    -0.273 OA
BRANCH  50  54
ATOM     54  CA  TYR A   4      -8.597  -5.304  29.490  0.00  0.00    +0.153 C 
BRANCH  54  57
ATOM     55  C   PRO A   3     -10.800  -6.345  29.511  0.00  0.00    +0.241 C 
ATOM     56  O   PRO A   3     -11.239  -5.522  30.334  0.00  0.00    -0.273 OA
ATOM     57  N   TYR A   4      -9.548  -6.329  29.064  0.00  0.00    -0.297 N 
ATOM     58  H   TYR A   4      -9.238  -7.063  28.396  0.00  0.00    +0.150 HD
BRANCH  55  65
ATOM     59  C   VAL A   2     -12.397  -9.030  30.730  0.00  0.00    +0.244 C 
ATOM     60  O   VAL A   2     -11.465  -9.806  30.485  0.00  0.00    -0.273 OA
ATOM     61  N   PRO A   3     -12.591  -7.900  30.041  0.00  0.00    -0.272 N 
ATOM     62  CD  PRO A   3     -13.855  -7.134  30.018  0.00  0.00    +0.094 C 
ATOM     63  CG  PRO A   3     -13.703  -6.240  28.757  0.00  0.00    +0.024 C 
ATOM     64  CB  PRO A   3     -12.674  -6.940  27.915  0.00  0.00    +0.031 C 
ATOM     65  CA  PRO A   3     -11.700  -7.455  28.968  0.00  0.00    +0.152 C 
BRANCH  59  66
ATOM     66  CA  VAL A   2     -13.410  -9.337  31.823  0.00  0.00    +0.149 C 
BRANCH  66  69
ATOM     67  C   TYR A   1     -15.476 -10.594  31.735  0.00  0.00    +0.239 C 
ATOM     68  O   TYR A   1     -16.127  -9.633  32.136  0.00  0.00    -0.274 OA
ATOM     69  N   VAL A   2     -14.158 -10.560  31.566  0.00  0.00    -0.297 N 
ATOM     70  H   VAL A   2     -13.657 -11.414  31.248  0.00  0.00    +0.150 HD
BRANCH  67  71
ATOM     71  CA  TYR A   1     -16.178 -11.904  31.427  0.00  0.00    +0.149 C 
BRANCH  71  72
ATOM     72  N   TYR A   1     -17.094 -12.202  32.528  0.00  0.00    -0.238 NA
ATOM     73  H   TYR A   1     -17.789 -11.482  32.811  0.00  0.00    +0.142 HD
ENDBRANCH  71  72
BRANCH  71  74
ATOM     74  CB  TYR A   1     -16.963 -11.756  30.124  0.00  0.00    +0.053 C 
BRANCH  74  75
ATOM     75  CG  TYR A   1     -16.167 -11.142  28.990  0.00  0.00    -0.020 A 
ATOM     76  CD2 TYR A   1     -16.470  -9.865  28.517  0.00  0.00    -0.001 A 
ATOM     77  CE2 TYR A   1     -15.763  -9.304  27.449  0.00  0.00    +0.036 A 
ATOM     78  CZ  TYR A   1     -14.740 -10.030  26.852  0.00  0.00    +0.134 A 
ATOM     79  CE1 TYR A   1     -14.419 -11.296  27.309  0.00  0.00    +0.036 A 
ATOM     80  CD1 TYR A   1     -15.135 -11.845  28.376  0.00  0.00    -0.001 A 
BRANCH  78  81
ATOM     81  OH  TYR A   1     -14.043  -9.495  25.792  0.00  0.00    -0.506 OA
ATOM     82  HH  TYR A   1     -14.669  -9.307  25.048  0.00  0.00    +0.292 HD
ENDBRANCH  78  81
ENDBRANCH  74  75
ENDBRANCH  71  74
ENDBRANCH  67  71
ENDBRANCH  66  69
BRANCH  66  83
ATOM     83  CB  VAL A   2     -12.649  -9.361  33.184  0.00  0.00    +0.027 C 
ATOM     84  CG2 VAL A   2     -13.636  -9.476  34.349  0.00  0.00    +0.002 C 
ATOM     85  CG1 VAL A   2     -11.842  -8.061  33.342  0.00  0.00    +0.002 C 
ENDBRANCH  66  83
ENDBRANCH  59  66
ENDBRANCH  55  65
ENDBRANCH  54  57
BRANCH  54  86
ATOM     86  CB  TYR A   4      -7.425  -5.946  30.213  0.00  0.00    +0.055 C 
BRANCH  86  87
ATOM     87  CG  TYR A   4      -7.809  -6.713  31.458  0.00  0.00    -0.020 A 
ATOM     88  CD2 TYR A   4      -7.818  -6.099  32.710  0.00  0.00    -0.001 A 
ATOM     89  CE2 TYR A   4      -8.133  -6.829  33.870  0.00  0.00    +0.036 A 
ATOM     90  CZ  TYR A   4      -8.449  -8.182  33.750  0.00  0.00    +0.134 A 
ATOM     91  CE1 TYR A   4      -8.446  -8.799  32.517  0.00  0.00    +0.036 A 
ATOM     92  CD1 TYR A   4      -8.128  -8.065  31.382  0.00  0.00    -0.001 A 
BRANCH  90  93
ATOM     93  OH  TYR A   4      -8.794  -8.927  34.845  0.00  0.00    -0.506 OA
ATOM     94  HH  TYR A   4      -8.753  -8.359  35.655  0.00  0.00    +0.292 HD
ENDBRANCH  90  93
ENDBRANCH  86  87
ENDBRANCH  54  86
ENDBRANCH  50  54
ENDBRANCH   1  51
BRANCH   1  95
ATOM     95  CB  THR A   5      -5.792  -1.723  27.685  0.00  0.00    +0.137 C 
ATOM     96  CG2 THR A   5      -5.257  -0.962  26.474  0.00  0.00    +0.034 C 
BRANCH  95  97
ATOM     97  OG1 THR A   5      -6.445  -0.798  28.565  0.00  0.00    -0.382 OA
ATOM     98  HG1 THR A   5      -5.800  -0.103  28.849  0.00  0.00    +0.210 HD
ENDBRANCH  95  97
ENDBRANCH   1  95
TORSDOF 36
REMARK  Name = ../refined-set-2016/2g94/2g94_pocket.pdb
REMARK  270 active torsions:
REMARK  status: ('A' for Active; 'I' for Inactive)
REMARK    1  A    between atoms: _1  and  _3
REMARK    2  A    between atoms: _3  and  _4
REMARK    3  A    between atoms: _3  and  _6
REMARK    4  A    between atoms: _6  and  _7
REMARK    5  A    between atoms: _7  and  _8
REMARK    6  A    between atoms: _8  and  _9
REMARK    7  A    between atoms: _9  and  _10
REMARK    8  A    between atoms: _14  and  _16
REMARK    9  A    between atoms: _16  and  _17
REMARK   10  A    between atoms: _16  and  _19
REMARK   11  A    between atoms: _19  and  _20
REMARK   12  A    between atoms: _22  and  _24
REMARK   13  A    between atoms: _24  and  _25
REMARK   14  A    between atoms: _27  and  _29
REMARK   15  A    between atoms: _29  and  _30
REMARK   16  A    between atoms: _29  and  _32
REMARK   17  A    between atoms: _32  and  _33
REMARK   18  A    between atoms: _33  and  _34
REMARK   19  A    between atoms: _39  and  _41
REMARK   20  A    between atoms: _41  and  _42
REMARK   21  A    between atoms: _44  and  _46
REMARK   22  A    between atoms: _46  and  _47
REMARK   23  A    between atoms: _46  and  _49
REMARK   24  A    between atoms: _49  and  _50
REMARK   25  A    between atoms: _55  and  _56
REMARK   26  A    between atoms: _58  and  _60
REMARK   27  A    between atoms: _60  and  _61
REMARK   28  A    between atoms: _60  and  _63
REMARK   29  A    between atoms: _63  and  _64
REMARK   30  A    between atoms: _69  and  _70
REMARK   31  A    between atoms: _72  and  _74
REMARK   32  A    between atoms: _74  and  _75
REMARK   33  A    between atoms: _74  and  _77
REMARK   34  A    between atoms: _77  and  _78
REMARK   35  A    between atoms: _81  and  _83
REMARK   36  A    between atoms: _83  and  _84
REMARK   37  A    between atoms: _83  and  _86
REMARK   38  A    between atoms: _89  and  _91
REMARK   39  A    between atoms: _91  and  _92
REMARK   40  A    between atoms: _91  and  _94
REMARK   41  A    between atoms: _94  and  _95
REMARK   42  A    between atoms: _98  and  _100
REMARK   43  A    between atoms: _100  and  _101
REMARK   44  A    between atoms: _100  and  _103
REMARK   45  A    between atoms: _103  and  _104
REMARK   46  A    between atoms: _107  and  _109
REMARK   47  A    between atoms: _109  and  _110
REMARK   48  A    between atoms: _112  and  _114
REMARK   49  A    between atoms: _114  and  _115
REMARK   50  A    between atoms: _114  and  _117
REMARK   51  A    between atoms: _117  and  _118
REMARK   52  A    between atoms: _120  and  _122
REMARK   53  A    between atoms: _122  and  _123
REMARK   54  A    between atoms: _122  and  _125
REMARK   55  A    between atoms: _125  and  _126
REMARK   56  A    between atoms: _128  and  _130
REMARK   57  A    between atoms: _130  and  _131
REMARK   58  A    between atoms: _130  and  _133
REMARK   59  A    between atoms: _133  and  _134
REMARK   60  A    between atoms: _139  and  _141
REMARK   61  A    between atoms: _141  and  _142
REMARK   62  A    between atoms: _141  and  _144
REMARK   63  A    between atoms: _144  and  _145
REMARK   64  A    between atoms: _150  and  _151
REMARK   65  A    between atoms: _153  and  _155
REMARK   66  A    between atoms: _155  and  _156
REMARK   67  A    between atoms: _155  and  _158
REMARK   68  A    between atoms: _162  and  _163
REMARK   69  A    between atoms: _168  and  _170
REMARK   70  A    between atoms: _170  and  _171
REMARK   71  A    between atoms: _170  and  _173
REMARK   72  A    between atoms: _173  and  _174
REMARK   73  A    between atoms: _179  and  _180
REMARK   74  A    between atoms: _182  and  _184
REMARK   75  A    between atoms: _184  and  _185
REMARK   76  A    between atoms: _184  and  _187
REMARK   77  A    between atoms: _187  and  _188
REMARK   78  A    between atoms: _191  and  _193
REMARK   79  A    between atoms: _193  and  _194
REMARK   80  A    between atoms: _193  and  _196
REMARK   81  A    between atoms: _196  and  _197
REMARK   82  A    between atoms: _197  and  _198
REMARK   83  A    between atoms: _203  and  _205
REMARK   84  A    between atoms: _205  and  _206
REMARK   85  A    between atoms: _208  and  _210
REMARK   86  A    between atoms: _210  and  _211
REMARK   87  A    between atoms: _210  and  _213
REMARK   88  A    between atoms: _213  and  _214
REMARK   89  A    between atoms: _214  and  _215
REMARK   90  A    between atoms: _215  and  _216
REMARK   91  A    between atoms: _216  and  _217
REMARK   92  A    between atoms: _221  and  _223
REMARK   93  A    between atoms: _223  and  _224
REMARK   94  A    between atoms: _223  and  _226
REMARK   95  A    between atoms: _226  and  _227
REMARK   96  A    between atoms: _237  and  _239
REMARK   97  A    between atoms: _239  and  _240
REMARK   98  A    between atoms: _239  and  _242
REMARK   99  A    between atoms: _242  and  _243
REMARK  100  A    between atoms: _246  and  _248
REMARK  101  A    between atoms: _248  and  _249
REMARK  102  A    between atoms: _248  and  _251
REMARK  103  A    between atoms: _251  and  _252
REMARK  104  A    between atoms: _252  and  _253
REMARK  105  A    between atoms: _253  and  _254
REMARK  106  A    between atoms: _254  and  _255
REMARK  107  A    between atoms: _259  and  _261
REMARK  108  A    between atoms: _261  and  _262
REMARK  109  A    between atoms: _261  and  _264
REMARK  110  A    between atoms: _264  and  _265
REMARK  111  A    between atoms: _271  and  _273
REMARK  112  A    between atoms: _273  and  _274
REMARK  113  A    between atoms: _273  and  _276
REMARK  114  A    between atoms: _276  and  _277
REMARK  115  A    between atoms: _283  and  _285
REMARK  116  A    between atoms: _285  and  _286
REMARK  117  A    between atoms: _285  and  _288
REMARK  118  A    between atoms: _288  and  _289
REMARK  119  A    between atoms: _292  and  _294
REMARK  120  A    between atoms: _294  and  _295
REMARK  121  A    between atoms: _294  and  _297
REMARK  122  A    between atoms: _297  and  _298
REMARK  123  A    between atoms: _300  and  _302
REMARK  124  A    between atoms: _302  and  _303
REMARK  125  A    between atoms: _302  and  _305
REMARK  126  A    between atoms: _305  and  _306
REMARK  127  A    between atoms: _316  and  _318
REMARK  128  A    between atoms: _318  and  _319
REMARK  129  A    between atoms: _321  and  _323
REMARK  130  A    between atoms: _323  and  _324
REMARK  131  A    between atoms: _323  and  _326
REMARK  132  A    between atoms: _326  and  _327
REMARK  133  A    between atoms: _330  and  _332
REMARK  134  A    between atoms: _332  and  _333
REMARK  135  A    between atoms: _332  and  _335
REMARK  136  A    between atoms: _335  and  _336
REMARK  137  A    between atoms: _339  and  _341
REMARK  138  A    between atoms: _341  and  _342
REMARK  139  A    between atoms: _341  and  _344
REMARK  140  A    between atoms: _344  and  _345
REMARK  141  A    between atoms: _348  and  _350
REMARK  142  A    between atoms: _350  and  _351
REMARK  143  A    between atoms: _354  and  _356
REMARK  144  A    between atoms: _356  and  _357
REMARK  145  A    between atoms: _356  and  _359
REMARK  146  A    between atoms: _359  and  _360
REMARK  147  A    between atoms: _365  and  _366
REMARK  148  A    between atoms: _368  and  _370
REMARK  149  A    between atoms: _370  and  _371
REMARK  150  A    between atoms: _370  and  _373
REMARK  151  A    between atoms: _373  and  _374
REMARK  152  A    between atoms: _374  and  _375
REMARK  153  A    between atoms: _378  and  _380
REMARK  154  A    between atoms: _380  and  _381
REMARK  155  A    between atoms: _380  and  _383
REMARK  156  A    between atoms: _383  and  _384
REMARK  157  A    between atoms: _387  and  _389
REMARK  158  A    between atoms: _389  and  _390
REMARK  159  A    between atoms: _393  and  _395
REMARK  160  A    between atoms: _395  and  _396
REMARK  161  A    between atoms: _395  and  _398
REMARK  162  A    between atoms: _398  and  _399
REMARK  163  A    between atoms: _399  and  _400
REMARK  164  A    between atoms: _400  and  _401
REMARK  165  A    between atoms: _410  and  _412
REMARK  166  A    between atoms: _412  and  _413
REMARK  167  A    between atoms: _412  and  _415
REMARK  168  A    between atoms: _415  and  _416
REMARK  169  A    between atoms: _419  and  _421
REMARK  170  A    between atoms: _421  and  _422
REMARK  171  A    between atoms: _421  and  _424
REMARK  172  A    between atoms: _424  and  _425
REMARK  173  A    between atoms: _435  and  _437
REMARK  174  A    between atoms: _437  and  _438
REMARK  175  A    between atoms: _437  and  _440
REMARK  176  A    between atoms: _440  and  _441
REMARK  177  A    between atoms: _446  and  _447
REMARK  178  A    between atoms: _449  and  _451
REMARK  179  A    between atoms: _451  and  _452
REMARK  180  A    between atoms: _451  and  _454
REMARK  181  A    between atoms: _454  and  _455
REMARK  182  A    between atoms: _455  and  _456
REMARK  183  A    between atoms: _456  and  _457
REMARK  184  A    between atoms: _457  and  _458
REMARK  185  A    between atoms: _462  and  _464
REMARK  186  A    between atoms: _464  and  _465
REMARK  187  A    between atoms: _464  and  _467
REMARK  188  A    between atoms: _467  and  _468
REMARK  189  A    between atoms: _471  and  _473
REMARK  190  A    between atoms: _473  and  _474
REMARK  191  A    between atoms: _473  and  _476
REMARK  192  A    between atoms: _479  and  _481
REMARK  193  A    between atoms: _481  and  _482
REMARK  194  A    between atoms: _481  and  _484
REMARK  195  A    between atoms: _484  and  _485
REMARK  196  A    between atoms: _488  and  _490
REMARK  197  A    between atoms: _490  and  _491
REMARK  198  A    between atoms: _490  and  _493
REMARK  199  A    between atoms: _493  and  _494
REMARK  200  A    between atoms: _496  and  _498
REMARK  201  A    between atoms: _498  and  _499
REMARK  202  A    between atoms: _501  and  _503
REMARK  203  A    between atoms: _503  and  _504
REMARK  204  A    between atoms: _503  and  _506
REMARK  205  A    between atoms: _506  and  _507
REMARK  206  A    between atoms: _510  and  _512
REMARK  207  A    between atoms: _512  and  _513
REMARK  208  A    between atoms: _512  and  _515
REMARK  209  A    between atoms: _515  and  _516
REMARK  210  A    between atoms: _519  and  _521
REMARK  211  A    between atoms: _521  and  _522
REMARK  212  A    between atoms: _521  and  _524
REMARK  213  A    between atoms: _524  and  _525
REMARK  214  A    between atoms: _530  and  _532
REMARK  215  A    between atoms: _532  and  _533
REMARK  216  A    between atoms: _532  and  _535
REMARK  217  A    between atoms: _535  and  _536
REMARK  218  A    between atoms: _539  and  _541
REMARK  219  A    between atoms: _541  and  _542
REMARK  220  A    between atoms: _541  and  _544
REMARK  221  A    between atoms: _544  and  _545
REMARK  222  A    between atoms: _545  and  _546
REMARK  223  A    between atoms: _546  and  _547
REMARK  224  A    between atoms: _556  and  _558
REMARK  225  A    between atoms: _558  and  _559
REMARK  226  A    between atoms: _558  and  _561
REMARK  227  A    between atoms: _561  and  _562
REMARK  228  A    between atoms: _562  and  _563
REMARK  229  A    between atoms: _563  and  _564
REMARK  230  A    between atoms: _573  and  _575
REMARK  231  A    between atoms: _575  and  _576
REMARK  232  A    between atoms: _575  and  _578
REMARK  233  A    between atoms: _578  and  _579
REMARK  234  A    between atoms: _581  and  _583
REMARK  235  A    between atoms: _583  and  _584
REMARK  236  A    between atoms: _583  and  _586
REMARK  237  A    between atoms: _586  and  _587
REMARK  238  A    between atoms: _587  and  _588
REMARK  239  A    between atoms: _593  and  _595
REMARK  240  A    between atoms: _595  and  _596
REMARK  241  A    between atoms: _595  and  _598
REMARK  242  A    between atoms: _598  and  _599
REMARK  243  A    between atoms: _601  and  _603
REMARK  244  A    between atoms: _603  and  _604
REMARK  245  A    between atoms: _603  and  _606
REMARK  246  A    between atoms: _606  and  _607
REMARK  247  A    between atoms: _610  and  _612
REMARK  248  A    between atoms: _612  and  _613
REMARK  249  A    between atoms: _612  and  _615
REMARK  250  A    between atoms: _615  and  _616
REMARK  251  A    between atoms: _619  and  _621
REMARK  252  A    between atoms: _621  and  _622
REMARK  253  A    between atoms: _621  and  _624
REMARK  254  A    between atoms: _627  and  _629
REMARK  255  A    between atoms: _629  and  _630
REMARK  256  A    between atoms: _632  and  _634
REMARK  257  A    between atoms: _634  and  _635
REMARK  258  A    between atoms: _638  and  _640
REMARK  259  A    between atoms: _640  and  _641
REMARK  260  A    between atoms: _640  and  _643
REMARK  261  A    between atoms: _646  and  _648
REMARK  262  A    between atoms: _648  and  _649
REMARK  263  A    between atoms: _648  and  _651
REMARK  264  A    between atoms: _651  and  _652
REMARK  265  A    between atoms: _652  and  _653
REMARK  266  A    between atoms: _655  and  _657
REMARK  267  A    between atoms: _657  and  _658
REMARK  268  A    between atoms: _657  and  _660
REMARK  269  A    between atoms: _660  and  _661
REMARK  270  A    between atoms: _661  and  _662
REMARK                            x       y       z     vdW  Elec       q    Type
REMARK                         _______ _______ _______ _____ _____    ______ ____
ROOT
ATOM      1  CA  PHE A   3      -3.823 -12.477  29.372  0.00  0.00    +0.153 C 
ENDROOT
BRANCH   1   3
ATOM      2  C   LYS A   2      -3.422 -12.056  27.009  0.00  0.00    +0.241 C 
ATOM      3  N   PHE A   3      -3.771 -12.901  27.973  0.00  0.00    -0.297 N 
ATOM      4  H   PHE A   3      -4.012 -13.883  27.728  0.00  0.00    +0.150 HD
ATOM      5  O   LYS A   2      -3.104 -10.893  27.226  0.00  0.00    -0.273 OA
BRANCH   2   6
ATOM      6  CA  LYS A   2      -3.423 -12.598  25.590  0.00  0.00    +0.149 C 
BRANCH   6   9
ATOM      7  C   ASP A   1      -5.705 -13.485  25.720  0.00  0.00    +0.239 C 
ATOM      8  O   ASP A   1      -6.167 -12.420  26.128  0.00  0.00    -0.274 OA
ATOM      9  N   LYS A   2      -4.417 -13.661  25.442  0.00  0.00    -0.297 N 
ATOM     10  H   LYS A   2      -4.103 -14.593  25.105  0.00  0.00    +0.150 HD
BRANCH   7  11
ATOM     11  CA  ASP A   1      -6.613 -14.695  25.498  0.00  0.00    +0.156 C 
BRANCH  11  12
ATOM     12  N   ASP A   1      -7.288 -15.060  26.730  0.00  0.00    -0.238 NA
ATOM     13  H   ASP A   1      -7.536 -14.315  27.412  0.00  0.00    +0.142 HD
ENDBRANCH  11  12
BRANCH  11  14
ATOM     14  CB  ASP A   1      -7.662 -14.390  24.422  0.00  0.00    +0.140 C 
BRANCH  14  15
ATOM     15  CG  ASP A   1      -7.049 -14.047  23.077  0.00  0.00    +0.367 C 
ATOM     16  OD2 ASP A   1      -6.147 -14.785  22.634  0.00  0.00    -0.246 OA
ATOM     17  OD1 ASP A   1      -7.481 -13.049  22.458  0.00  0.00    -0.246 OA
ENDBRANCH  14  15
ENDBRANCH  11  14
ENDBRANCH   7  11
ENDBRANCH   6   9
BRANCH   6  18
ATOM     18  CB  LYS A   2      -3.706 -11.445  24.609  0.00  0.00    +0.029 C 
BRANCH  18  19
ATOM     19  CG  LYS A   2      -3.638 -11.847  23.140  0.00  0.00    +0.000 C 
BRANCH  19  20
ATOM     20  CD  LYS A   2      -4.235 -10.775  22.231  0.00  0.00    -0.024 C 
BRANCH  20  21
ATOM     21  CE  LYS A   2      -4.350 -11.282  20.793  0.00  0.00    -0.086 C 
BRANCH  21  22
ATOM     22  NZ  LYS A   2      -4.957 -10.272  19.863  0.00  0.00    +0.380 N 
ATOM     23  HZ1 LYS A   2      -5.914 -10.031  20.192  0.00  0.00    -0.089 HD
ATOM     24  HZ2 LYS A   2      -4.367  -9.415  19.851  0.00  0.00    -0.089 HD
ATOM     25  HZ3 LYS A   2      -5.009 -10.672  18.905  0.00  0.00    -0.089 HD
ENDBRANCH  21  22
ENDBRANCH  20  21
ENDBRANCH  19  20
ENDBRANCH  18  19
ENDBRANCH   6  18
ENDBRANCH   2   6
ENDBRANCH   1   3
BRANCH   1  26
ATOM     26  C   PHE A   3      -2.604 -12.980  30.139  0.00  0.00    +0.241 C 
ATOM     27  O   PHE A   3      -1.801 -12.183  30.637  0.00  0.00    -0.273 OA
ATOM     28  N   PHE A   4      -2.450 -14.296  30.233  0.00  0.00    -0.297 N 
ATOM     29  H   PHE A   4      -3.142 -14.935  29.793  0.00  0.00    +0.150 HD
BRANCH  28  30
ATOM     30  CA  PHE A   4      -1.310 -14.840  30.954  0.00  0.00    +0.153 C 
BRANCH  30  31
ATOM     31  C   PHE A   4      -0.037 -14.591  30.159  0.00  0.00    +0.241 C 
ATOM     32  N   ILE A   5       1.066 -14.368  30.869  0.00  0.00    -0.298 N 
ATOM     33  H   ILE A   5       1.018 -14.400  31.907  0.00  0.00    +0.150 HD
ATOM     34  O   PHE A   4      -0.060 -14.581  28.931  0.00  0.00    -0.273 OA
BRANCH  32  35
ATOM     35  CA  ILE A   5       2.339 -14.080  30.222  0.00  0.00    +0.137 C 
BRANCH  35  36
ATOM     36  CB  ILE A   5       2.888 -12.720  30.695  0.00  0.00    +0.026 C 
ATOM     37  CG2 ILE A   5       4.205 -12.416  30.001  0.00  0.00    +0.002 C 
BRANCH  36  38
ATOM     38  CG1 ILE A   5       1.854 -11.623  30.416  0.00  0.00    +0.002 C 
ATOM     39  CD1 ILE A   5       2.211 -10.259  30.984  0.00  0.00    +0.000 C 
ENDBRANCH  36  38
ENDBRANCH  35  36
BRANCH  35  40
ATOM     40  C   ILE A   5       3.359 -15.161  30.530  0.00  0.00    +0.227 C 
ATOM     41  O   ILE A   5       3.688 -15.411  31.690  0.00  0.00    -0.286 OA
ENDBRANCH  35  40
ENDBRANCH  32  35
ENDBRANCH  30  31
BRANCH  30  42
ATOM     42  CB  PHE A   4      -1.511 -16.332  31.223  0.00  0.00    +0.055 C 
BRANCH  42  43
ATOM     43  CG  PHE A   4      -2.613 -16.616  32.207  0.00  0.00    -0.020 A 
ATOM     44  CD2 PHE A   4      -2.543 -16.114  33.508  0.00  0.00    -0.004 A 
ATOM     45  CE2 PHE A   4      -3.585 -16.342  34.417  0.00  0.00    -0.000 A 
ATOM     46  CZ  PHE A   4      -4.698 -17.073  34.025  0.00  0.00    -0.000 A 
ATOM     47  CE1 PHE A   4      -4.775 -17.579  32.732  0.00  0.00    -0.000 A 
ATOM     48  CD1 PHE A   4      -3.733 -17.348  31.832  0.00  0.00    -0.004 A 
ENDBRANCH  42  43
ENDBRANCH  30  42
ENDBRANCH  28  30
ENDBRANCH   1  26
BRANCH   1  49
ATOM     49  CB  PHE A   3      -5.110 -12.991  30.023  0.00  0.00    +0.055 C 
BRANCH  49  50
ATOM     50  CG  PHE A   3      -5.268 -12.584  31.464  0.00  0.00    -0.020 A 
ATOM     51  CD2 PHE A   3      -5.202 -13.536  32.476  0.00  0.00    -0.004 A 
ATOM     52  CE2 PHE A   3      -5.296 -13.165  33.817  0.00  0.00    -0.000 A 
ATOM     53  CZ  PHE A   3      -5.461 -11.821  34.153  0.00  0.00    -0.000 A 
ATOM     54  CE1 PHE A   3      -5.533 -10.865  33.154  0.00  0.00    -0.000 A 
ATOM     55  CD1 PHE A   3      -5.435 -11.248  31.809  0.00  0.00    -0.004 A 
ENDBRANCH  49  50
ENDBRANCH   1  49
TORSDOF 23
REMARK  Name = ../refined-set-2016/2g94/2g94_pocket.pdb
REMARK  270 active torsions:
REMARK  status: ('A' for Active; 'I' for Inactive)
REMARK    1  A    between atoms: _1  and  _3
REMARK    2  A    between atoms: _3  and  _4
REMARK    3  A    between atoms: _3  and  _6
REMARK    4  A    between atoms: _6  and  _7
REMARK    5  A    between atoms: _7  and  _8
REMARK    6  A    between atoms: _8  and  _9
REMARK    7  A    between atoms: _9  and  _10
REMARK    8  A    between atoms: _14  and  _16
REMARK    9  A    between atoms: _16  and  _17
REMARK   10  A    between atoms: _16  and  _19
REMARK   11  A    between atoms: _19  and  _20
REMARK   12  A    between atoms: _22  and  _24
REMARK   13  A    between atoms: _24  and  _25
REMARK   14  A    between atoms: _27  and  _29
REMARK   15  A    between atoms: _29  and  _30
REMARK   16  A    between atoms: _29  and  _32
REMARK   17  A    between atoms: _32  and  _33
REMARK   18  A    between atoms: _33  and  _34
REMARK   19  A    between atoms: _39  and  _41
REMARK   20  A    between atoms: _41  and  _42
REMARK   21  A    between atoms: _44  and  _46
REMARK   22  A    between atoms: _46  and  _47
REMARK   23  A    between atoms: _46  and  _49
REMARK   24  A    between atoms: _49  and  _50
REMARK   25  A    between atoms: _55  and  _56
REMARK   26  A    between atoms: _58  and  _60
REMARK   27  A    between atoms: _60  and  _61
REMARK   28  A    between atoms: _60  and  _63
REMARK   29  A    between atoms: _63  and  _64
REMARK   30  A    between atoms: _69  and  _70
REMARK   31  A    between atoms: _72  and  _74
REMARK   32  A    between atoms: _74  and  _75
REMARK   33  A    between atoms: _74  and  _77
REMARK   34  A    between atoms: _77  and  _78
REMARK   35  A    between atoms: _81  and  _83
REMARK   36  A    between atoms: _83  and  _84
REMARK   37  A    between atoms: _83  and  _86
REMARK   38  A    between atoms: _89  and  _91
REMARK   39  A    between atoms: _91  and  _92
REMARK   40  A    between atoms: _91  and  _94
REMARK   41  A    between atoms: _94  and  _95
REMARK   42  A    between atoms: _98  and  _100
REMARK   43  A    between atoms: _100  and  _101
REMARK   44  A    between atoms: _100  and  _103
REMARK   45  A    between atoms: _103  and  _104
REMARK   46  A    between atoms: _107  and  _109
REMARK   47  A    between atoms: _109  and  _110
REMARK   48  A    between atoms: _112  and  _114
REMARK   49  A    between atoms: _114  and  _115
REMARK   50  A    between atoms: _114  and  _117
REMARK   51  A    between atoms: _117  and  _118
REMARK   52  A    between atoms: _120  and  _122
REMARK   53  A    between atoms: _122  and  _123
REMARK   54  A    between atoms: _122  and  _125
REMARK   55  A    between atoms: _125  and  _126
REMARK   56  A    between atoms: _128  and  _130
REMARK   57  A    between atoms: _130  and  _131
REMARK   58  A    between atoms: _130  and  _133
REMARK   59  A    between atoms: _133  and  _134
REMARK   60  A    between atoms: _139  and  _141
REMARK   61  A    between atoms: _141  and  _142
REMARK   62  A    between atoms: _141  and  _144
REMARK   63  A    between atoms: _144  and  _145
REMARK   64  A    between atoms: _150  and  _151
REMARK   65  A    between atoms: _153  and  _155
REMARK   66  A    between atoms: _155  and  _156
REMARK   67  A    between atoms: _155  and  _158
REMARK   68  A    between atoms: _162  and  _163
REMARK   69  A    between atoms: _168  and  _170
REMARK   70  A    between atoms: _170  and  _171
REMARK   71  A    between atoms: _170  and  _173
REMARK   72  A    between atoms: _173  and  _174
REMARK   73  A    between atoms: _179  and  _180
REMARK   74  A    between atoms: _182  and  _184
REMARK   75  A    between atoms: _184  and  _185
REMARK   76  A    between atoms: _184  and  _187
REMARK   77  A    between atoms: _187  and  _188
REMARK   78  A    between atoms: _191  and  _193
REMARK   79  A    between atoms: _193  and  _194
REMARK   80  A    between atoms: _193  and  _196
REMARK   81  A    between atoms: _196  and  _197
REMARK   82  A    between atoms: _197  and  _198
REMARK   83  A    between atoms: _203  and  _205
REMARK   84  A    between atoms: _205  and  _206
REMARK   85  A    between atoms: _208  and  _210
REMARK   86  A    between atoms: _210  and  _211
REMARK   87  A    between atoms: _210  and  _213
REMARK   88  A    between atoms: _213  and  _214
REMARK   89  A    between atoms: _214  and  _215
REMARK   90  A    between atoms: _215  and  _216
REMARK   91  A    between atoms: _216  and  _217
REMARK   92  A    between atoms: _221  and  _223
REMARK   93  A    between atoms: _223  and  _224
REMARK   94  A    between atoms: _223  and  _226
REMARK   95  A    between atoms: _226  and  _227
REMARK   96  A    between atoms: _237  and  _239
REMARK   97  A    between atoms: _239  and  _240
REMARK   98  A    between atoms: _239  and  _242
REMARK   99  A    between atoms: _242  and  _243
REMARK  100  A    between atoms: _246  and  _248
REMARK  101  A    between atoms: _248  and  _249
REMARK  102  A    between atoms: _248  and  _251
REMARK  103  A    between atoms: _251  and  _252
REMARK  104  A    between atoms: _252  and  _253
REMARK  105  A    between atoms: _253  and  _254
REMARK  106  A    between atoms: _254  and  _255
REMARK  107  A    between atoms: _259  and  _261
REMARK  108  A    between atoms: _261  and  _262
REMARK  109  A    between atoms: _261  and  _264
REMARK  110  A    between atoms: _264  and  _265
REMARK  111  A    between atoms: _271  and  _273
REMARK  112  A    between atoms: _273  and  _274
REMARK  113  A    between atoms: _273  and  _276
REMARK  114  A    between atoms: _276  and  _277
REMARK  115  A    between atoms: _283  and  _285
REMARK  116  A    between atoms: _285  and  _286
REMARK  117  A    between atoms: _285  and  _288
REMARK  118  A    between atoms: _288  and  _289
REMARK  119  A    between atoms: _292  and  _294
REMARK  120  A    between atoms: _294  and  _295
REMARK  121  A    between atoms: _294  and  _297
REMARK  122  A    between atoms: _297  and  _298
REMARK  123  A    between atoms: _300  and  _302
REMARK  124  A    between atoms: _302  and  _303
REMARK  125  A    between atoms: _302  and  _305
REMARK  126  A    between atoms: _305  and  _306
REMARK  127  A    between atoms: _316  and  _318
REMARK  128  A    between atoms: _318  and  _319
REMARK  129  A    between atoms: _321  and  _323
REMARK  130  A    between atoms: _323  and  _324
REMARK  131  A    between atoms: _323  and  _326
REMARK  132  A    between atoms: _326  and  _327
REMARK  133  A    between atoms: _330  and  _332
REMARK  134  A    between atoms: _332  and  _333
REMARK  135  A    between atoms: _332  and  _335
REMARK  136  A    between atoms: _335  and  _336
REMARK  137  A    between atoms: _339  and  _341
REMARK  138  A    between atoms: _341  and  _342
REMARK  139  A    between atoms: _341  and  _344
REMARK  140  A    between atoms: _344  and  _345
REMARK  141  A    between atoms: _348  and  _350
REMARK  142  A    between atoms: _350  and  _351
REMARK  143  A    between atoms: _354  and  _356
REMARK  144  A    between atoms: _356  and  _357
REMARK  145  A    between atoms: _356  and  _359
REMARK  146  A    between atoms: _359  and  _360
REMARK  147  A    between atoms: _365  and  _366
REMARK  148  A    between atoms: _368  and  _370
REMARK  149  A    between atoms: _370  and  _371
REMARK  150  A    between atoms: _370  and  _373
REMARK  151  A    between atoms: _373  and  _374
REMARK  152  A    between atoms: _374  and  _375
REMARK  153  A    between atoms: _378  and  _380
REMARK  154  A    between atoms: _380  and  _381
REMARK  155  A    between atoms: _380  and  _383
REMARK  156  A    between atoms: _383  and  _384
REMARK  157  A    between atoms: _387  and  _389
REMARK  158  A    between atoms: _389  and  _390
REMARK  159  A    between atoms: _393  and  _395
REMARK  160  A    between atoms: _395  and  _396
REMARK  161  A    between atoms: _395  and  _398
REMARK  162  A    between atoms: _398  and  _399
REMARK  163  A    between atoms: _399  and  _400
REMARK  164  A    between atoms: _400  and  _401
REMARK  165  A    between atoms: _410  and  _412
REMARK  166  A    between atoms: _412  and  _413
REMARK  167  A    between atoms: _412  and  _415
REMARK  168  A    between atoms: _415  and  _416
REMARK  169  A    between atoms: _419  and  _421
REMARK  170  A    between atoms: _421  and  _422
REMARK  171  A    between atoms: _421  and  _424
REMARK  172  A    between atoms: _424  and  _425
REMARK  173  A    between atoms: _435  and  _437
REMARK  174  A    between atoms: _437  and  _438
REMARK  175  A    between atoms: _437  and  _440
REMARK  176  A    between atoms: _440  and  _441
REMARK  177  A    between atoms: _446  and  _447
REMARK  178  A    between atoms: _449  and  _451
REMARK  179  A    between atoms: _451  and  _452
REMARK  180  A    between atoms: _451  and  _454
REMARK  181  A    between atoms: _454  and  _455
REMARK  182  A    between atoms: _455  and  _456
REMARK  183  A    between atoms: _456  and  _457
REMARK  184  A    between atoms: _457  and  _458
REMARK  185  A    between atoms: _462  and  _464
REMARK  186  A    between atoms: _464  and  _465
REMARK  187  A    between atoms: _464  and  _467
REMARK  188  A    between atoms: _467  and  _468
REMARK  189  A    between atoms: _471  and  _473
REMARK  190  A    between atoms: _473  and  _474
REMARK  191  A    between atoms: _473  and  _476
REMARK  192  A    between atoms: _479  and  _481
REMARK  193  A    between atoms: _481  and  _482
REMARK  194  A    between atoms: _481  and  _484
REMARK  195  A    between atoms: _484  and  _485
REMARK  196  A    between atoms: _488  and  _490
REMARK  197  A    between atoms: _490  and  _491
REMARK  198  A    between atoms: _490  and  _493
REMARK  199  A    between atoms: _493  and  _494
REMARK  200  A    between atoms: _496  and  _498
REMARK  201  A    between atoms: _498  and  _499
REMARK  202  A    between atoms: _501  and  _503
REMARK  203  A    between atoms: _503  and  _504
REMARK  204  A    between atoms: _503  and  _506
REMARK  205  A    between atoms: _506  and  _507
REMARK  206  A    between atoms: _510  and  _512
REMARK  207  A    between atoms: _512  and  _513
REMARK  208  A    between atoms: _512  and  _515
REMARK  209  A    between atoms: _515  and  _516
REMARK  210  A    between atoms: _519  and  _521
REMARK  211  A    between atoms: _521  and  _522
REMARK  212  A    between atoms: _521  and  _524
REMARK  213  A    between atoms: _524  and  _525
REMARK  214  A    between atoms: _530  and  _532
REMARK  215  A    between atoms: _532  and  _533
REMARK  216  A    between atoms: _532  and  _535
REMARK  217  A    between atoms: _535  and  _536
REMARK  218  A    between atoms: _539  and  _541
REMARK  219  A    between atoms: _541  and  _542
REMARK  220  A    between atoms: _541  and  _544
REMARK  221  A    between atoms: _544  and  _545
REMARK  222  A    between atoms: _545  and  _546
REMARK  223  A    between atoms: _546  and  _547
REMARK  224  A    between atoms: _556  and  _558
REMARK  225  A    between atoms: _558  and  _559
REMARK  226  A    between atoms: _558  and  _561
REMARK  227  A    between atoms: _561  and  _562
REMARK  228  A    between atoms: _562  and  _563
REMARK  229  A    between atoms: _563  and  _564
REMARK  230  A    between atoms: _573  and  _575
REMARK  231  A    between atoms: _575  and  _576
REMARK  232  A    between atoms: _575  and  _578
REMARK  233  A    between atoms: _578  and  _579
REMARK  234  A    between atoms: _581  and  _583
REMARK  235  A    between atoms: _583  and  _584
REMARK  236  A    between atoms: _583  and  _586
REMARK  237  A    between atoms: _586  and  _587
REMARK  238  A    between atoms: _587  and  _588
REMARK  239  A    between atoms: _593  and  _595
REMARK  240  A    between atoms: _595  and  _596
REMARK  241  A    between atoms: _595  and  _598
REMARK  242  A    between atoms: _598  and  _599
REMARK  243  A    between atoms: _601  and  _603
REMARK  244  A    between atoms: _603  and  _604
REMARK  245  A    between atoms: _603  and  _606
REMARK  246  A    between atoms: _606  and  _607
REMARK  247  A    between atoms: _610  and  _612
REMARK  248  A    between atoms: _612  and  _613
REMARK  249  A    between atoms: _612  and  _615
REMARK  250  A    between atoms: _615  and  _616
REMARK  251  A    between atoms: _619  and  _621
REMARK  252  A    between atoms: _621  and  _622
REMARK  253  A    between atoms: _621  and  _624
REMARK  254  A    between atoms: _627  and  _629
REMARK  255  A    between atoms: _629  and  _630
REMARK  256  A    between atoms: _632  and  _634
REMARK  257  A    between atoms: _634  and  _635
REMARK  258  A    between atoms: _638  and  _640
REMARK  259  A    between atoms: _640  and  _641
REMARK  260  A    between atoms: _640  and  _643
REMARK  261  A    between atoms: _646  and  _648
REMARK  262  A    between atoms: _648  and  _649
REMARK  263  A    between atoms: _648  and  _651
REMARK  264  A    between atoms: _651  and  _652
REMARK  265  A    between atoms: _652  and  _653
REMARK  266  A    between atoms: _655  and  _657
REMARK  267  A    between atoms: _657  and  _658
REMARK  268  A    between atoms: _657  and  _660
REMARK  269  A    between atoms: _660  and  _661
REMARK  270  A    between atoms: _661  and  _662
REMARK                            x       y       z     vdW  Elec       q    Type
REMARK                         _______ _______ _______ _____ _____    ______ ____
ROOT
ATOM      1  CA  SER A   1       5.878 -14.059  34.430  0.00  0.00    +0.163 C 
ENDROOT
BRANCH   1   2
ATOM      2  N   SER A   1       6.160 -15.116  33.451  0.00  0.00    -0.237 NA
ATOM      3  H   SER A   1       5.396 -15.443  32.825  0.00  0.00    +0.142 HD
ENDBRANCH   1   2
BRANCH   1   4
ATOM      4  C   SER A   1       5.834 -14.566  35.868  0.00  0.00    +0.227 C 
ATOM      5  O   SER A   1       6.021 -13.802  36.816  0.00  0.00    -0.287 OA
ENDBRANCH   1   4
BRANCH   1   6
ATOM      6  CB  SER A   1       4.539 -13.399  34.105  0.00  0.00    +0.162 C 
BRANCH   6   7
ATOM      7  OG  SER A   1       3.471 -14.320  34.298  0.00  0.00    -0.380 OA
ATOM      8  H   SER A   1       2.612 -13.877  34.083  0.00  0.00    +0.211 HD
ENDBRANCH   6   7
ENDBRANCH   1   6
TORSDOF 4
REMARK  Name = ../refined-set-2016/2g94/2g94_pocket.pdb
REMARK  270 active torsions:
REMARK  status: ('A' for Active; 'I' for Inactive)
REMARK    1  A    between atoms: _1  and  _3
REMARK    2  A    between atoms: _3  and  _4
REMARK    3  A    between atoms: _3  and  _6
REMARK    4  A    between atoms: _6  and  _7
REMARK    5  A    between atoms: _7  and  _8
REMARK    6  A    between atoms: _8  and  _9
REMARK    7  A    between atoms: _9  and  _10
REMARK    8  A    between atoms: _14  and  _16
REMARK    9  A    between atoms: _16  and  _17
REMARK   10  A    between atoms: _16  and  _19
REMARK   11  A    between atoms: _19  and  _20
REMARK   12  A    between atoms: _22  and  _24
REMARK   13  A    between atoms: _24  and  _25
REMARK   14  A    between atoms: _27  and  _29
REMARK   15  A    between atoms: _29  and  _30
REMARK   16  A    between atoms: _29  and  _32
REMARK   17  A    between atoms: _32  and  _33
REMARK   18  A    between atoms: _33  and  _34
REMARK   19  A    between atoms: _39  and  _41
REMARK   20  A    between atoms: _41  and  _42
REMARK   21  A    between atoms: _44  and  _46
REMARK   22  A    between atoms: _46  and  _47
REMARK   23  A    between atoms: _46  and  _49
REMARK   24  A    between atoms: _49  and  _50
REMARK   25  A    between atoms: _55  and  _56
REMARK   26  A    between atoms: _58  and  _60
REMARK   27  A    between atoms: _60  and  _61
REMARK   28  A    between atoms: _60  and  _63
REMARK   29  A    between atoms: _63  and  _64
REMARK   30  A    between atoms: _69  and  _70
REMARK   31  A    between atoms: _72  and  _74
REMARK   32  A    between atoms: _74  and  _75
REMARK   33  A    between atoms: _74  and  _77
REMARK   34  A    between atoms: _77  and  _78
REMARK   35  A    between atoms: _81  and  _83
REMARK   36  A    between atoms: _83  and  _84
REMARK   37  A    between atoms: _83  and  _86
REMARK   38  A    between atoms: _89  and  _91
REMARK   39  A    between atoms: _91  and  _92
REMARK   40  A    between atoms: _91  and  _94
REMARK   41  A    between atoms: _94  and  _95
REMARK   42  A    between atoms: _98  and  _100
REMARK   43  A    between atoms: _100  and  _101
REMARK   44  A    between atoms: _100  and  _103
REMARK   45  A    between atoms: _103  and  _104
REMARK   46  A    between atoms: _107  and  _109
REMARK   47  A    between atoms: _109  and  _110
REMARK   48  A    between atoms: _112  and  _114
REMARK   49  A    between atoms: _114  and  _115
REMARK   50  A    between atoms: _114  and  _117
REMARK   51  A    between atoms: _117  and  _118
REMARK   52  A    between atoms: _120  and  _122
REMARK   53  A    between atoms: _122  and  _123
REMARK   54  A    between atoms: _122  and  _125
REMARK   55  A    between atoms: _125  and  _126
REMARK   56  A    between atoms: _128  and  _130
REMARK   57  A    between atoms: _130  and  _131
REMARK   58  A    between atoms: _130  and  _133
REMARK   59  A    between atoms: _133  and  _134
REMARK   60  A    between atoms: _139  and  _141
REMARK   61  A    between atoms: _141  and  _142
REMARK   62  A    between atoms: _141  and  _144
REMARK   63  A    between atoms: _144  and  _145
REMARK   64  A    between atoms: _150  and  _151
REMARK   65  A    between atoms: _153  and  _155
REMARK   66  A    between atoms: _155  and  _156
REMARK   67  A    between atoms: _155  and  _158
REMARK   68  A    between atoms: _162  and  _163
REMARK   69  A    between atoms: _168  and  _170
REMARK   70  A    between atoms: _170  and  _171
REMARK   71  A    between atoms: _170  and  _173
REMARK   72  A    between atoms: _173  and  _174
REMARK   73  A    between atoms: _179  and  _180
REMARK   74  A    between atoms: _182  and  _184
REMARK   75  A    between atoms: _184  and  _185
REMARK   76  A    between atoms: _184  and  _187
REMARK   77  A    between atoms: _187  and  _188
REMARK   78  A    between atoms: _191  and  _193
REMARK   79  A    between atoms: _193  and  _194
REMARK   80  A    between atoms: _193  and  _196
REMARK   81  A    between atoms: _196  and  _197
REMARK   82  A    between atoms: _197  and  _198
REMARK   83  A    between atoms: _203  and  _205
REMARK   84  A    between atoms: _205  and  _206
REMARK   85  A    between atoms: _208  and  _210
REMARK   86  A    between atoms: _210  and  _211
REMARK   87  A    between atoms: _210  and  _213
REMARK   88  A    between atoms: _213  and  _214
REMARK   89  A    between atoms: _214  and  _215
REMARK   90  A    between atoms: _215  and  _216
REMARK   91  A    between atoms: _216  and  _217
REMARK   92  A    between atoms: _221  and  _223
REMARK   93  A    between atoms: _223  and  _224
REMARK   94  A    between atoms: _223  and  _226
REMARK   95  A    between atoms: _226  and  _227
REMARK   96  A    between atoms: _237  and  _239
REMARK   97  A    between atoms: _239  and  _240
REMARK   98  A    between atoms: _239  and  _242
REMARK   99  A    between atoms: _242  and  _243
REMARK  100  A    between atoms: _246  and  _248
REMARK  101  A    between atoms: _248  and  _249
REMARK  102  A    between atoms: _248  and  _251
REMARK  103  A    between atoms: _251  and  _252
REMARK  104  A    between atoms: _252  and  _253
REMARK  105  A    between atoms: _253  and  _254
REMARK  106  A    between atoms: _254  and  _255
REMARK  107  A    between atoms: _259  and  _261
REMARK  108  A    between atoms: _261  and  _262
REMARK  109  A    between atoms: _261  and  _264
REMARK  110  A    between atoms: _264  and  _265
REMARK  111  A    between atoms: _271  and  _273
REMARK  112  A    between atoms: _273  and  _274
REMARK  113  A    between atoms: _273  and  _276
REMARK  114  A    between atoms: _276  and  _277
REMARK  115  A    between atoms: _283  and  _285
REMARK  116  A    between atoms: _285  and  _286
REMARK  117  A    between atoms: _285  and  _288
REMARK  118  A    between atoms: _288  and  _289
REMARK  119  A    between atoms: _292  and  _294
REMARK  120  A    between atoms: _294  and  _295
REMARK  121  A    between atoms: _294  and  _297
REMARK  122  A    between atoms: _297  and  _298
REMARK  123  A    between atoms: _300  and  _302
REMARK  124  A    between atoms: _302  and  _303
REMARK  125  A    between atoms: _302  and  _305
REMARK  126  A    between atoms: _305  and  _306
REMARK  127  A    between atoms: _316  and  _318
REMARK  128  A    between atoms: _318  and  _319
REMARK  129  A    between atoms: _321  and  _323
REMARK  130  A    between atoms: _323  and  _324
REMARK  131  A    between atoms: _323  and  _326
REMARK  132  A    between atoms: _326  and  _327
REMARK  133  A    between atoms: _330  and  _332
REMARK  134  A    between atoms: _332  and  _333
REMARK  135  A    between atoms: _332  and  _335
REMARK  136  A    between atoms: _335  and  _336
REMARK  137  A    between atoms: _339  and  _341
REMARK  138  A    between atoms: _341  and  _342
REMARK  139  A    between atoms: _341  and  _344
REMARK  140  A    between atoms: _344  and  _345
REMARK  141  A    between atoms: _348  and  _350
REMARK  142  A    between atoms: _350  and  _351
REMARK  143  A    between atoms: _354  and  _356
REMARK  144  A    between atoms: _356  and  _357
REMARK  145  A    between atoms: _356  and  _359
REMARK  146  A    between atoms: _359  and  _360
REMARK  147  A    between atoms: _365  and  _366
REMARK  148  A    between atoms: _368  and  _370
REMARK  149  A    between atoms: _370  and  _371
REMARK  150  A    between atoms: _370  and  _373
REMARK  151  A    between atoms: _373  and  _374
REMARK  152  A    between atoms: _374  and  _375
REMARK  153  A    between atoms: _378  and  _380
REMARK  154  A    between atoms: _380  and  _381
REMARK  155  A    between atoms: _380  and  _383
REMARK  156  A    between atoms: _383  and  _384
REMARK  157  A    between atoms: _387  and  _389
REMARK  158  A    between atoms: _389  and  _390
REMARK  159  A    between atoms: _393  and  _395
REMARK  160  A    between atoms: _395  and  _396
REMARK  161  A    between atoms: _395  and  _398
REMARK  162  A    between atoms: _398  and  _399
REMARK  163  A    between atoms: _399  and  _400
REMARK  164  A    between atoms: _400  and  _401
REMARK  165  A    between atoms: _410  and  _412
REMARK  166  A    between atoms: _412  and  _413
REMARK  167  A    between atoms: _412  and  _415
REMARK  168  A    between atoms: _415  and  _416
REMARK  169  A    between atoms: _419  and  _421
REMARK  170  A    between atoms: _421  and  _422
REMARK  171  A    between atoms: _421  and  _424
REMARK  172  A    between atoms: _424  and  _425
REMARK  173  A    between atoms: _435  and  _437
REMARK  174  A    between atoms: _437  and  _438
REMARK  175  A    between atoms: _437  and  _440
REMARK  176  A    between atoms: _440  and  _441
REMARK  177  A    between atoms: _446  and  _447
REMARK  178  A    between atoms: _449  and  _451
REMARK  179  A    between atoms: _451  and  _452
REMARK  180  A    between atoms: _451  and  _454
REMARK  181  A    between atoms: _454  and  _455
REMARK  182  A    between atoms: _455  and  _456
REMARK  183  A    between atoms: _456  and  _457
REMARK  184  A    between atoms: _457  and  _458
REMARK  185  A    between atoms: _462  and  _464
REMARK  186  A    between atoms: _464  and  _465
REMARK  187  A    between atoms: _464  and  _467
REMARK  188  A    between atoms: _467  and  _468
REMARK  189  A    between atoms: _471  and  _473
REMARK  190  A    between atoms: _473  and  _474
REMARK  191  A    between atoms: _473  and  _476
REMARK  192  A    between atoms: _479  and  _481
REMARK  193  A    between atoms: _481  and  _482
REMARK  194  A    between atoms: _481  and  _484
REMARK  195  A    between atoms: _484  and  _485
REMARK  196  A    between atoms: _488  and  _490
REMARK  197  A    between atoms: _490  and  _491
REMARK  198  A    between atoms: _490  and  _493
REMARK  199  A    between atoms: _493  and  _494
REMARK  200  A    between atoms: _496  and  _498
REMARK  201  A    between atoms: _498  and  _499
REMARK  202  A    between atoms: _501  and  _503
REMARK  203  A    between atoms: _503  and  _504
REMARK  204  A    between atoms: _503  and  _506
REMARK  205  A    between atoms: _506  and  _507
REMARK  206  A    between atoms: _510  and  _512
REMARK  207  A    between atoms: _512  and  _513
REMARK  208  A    between atoms: _512  and  _515
REMARK  209  A    between atoms: _515  and  _516
REMARK  210  A    between atoms: _519  and  _521
REMARK  211  A    between atoms: _521  and  _522
REMARK  212  A    between atoms: _521  and  _524
REMARK  213  A    between atoms: _524  and  _525
REMARK  214  A    between atoms: _530  and  _532
REMARK  215  A    between atoms: _532  and  _533
REMARK  216  A    between atoms: _532  and  _535
REMARK  217  A    between atoms: _535  and  _536
REMARK  218  A    between atoms: _539  and  _541
REMARK  219  A    between atoms: _541  and  _542
REMARK  220  A    between atoms: _541  and  _544
REMARK  221  A    between atoms: _544  and  _545
REMARK  222  A    between atoms: _545  and  _546
REMARK  223  A    between atoms: _546  and  _547
REMARK  224  A    between atoms: _556  and  _558
REMARK  225  A    between atoms: _558  and  _559
REMARK  226  A    between atoms: _558  and  _561
REMARK  227  A    between atoms: _561  and  _562
REMARK  228  A    between atoms: _562  and  _563
REMARK  229  A    between atoms: _563  and  _564
REMARK  230  A    between atoms: _573  and  _575
REMARK  231  A    between atoms: _575  and  _576
REMARK  232  A    between atoms: _575  and  _578
REMARK  233  A    between atoms: _578  and  _579
REMARK  234  A    between atoms: _581  and  _583
REMARK  235  A    between atoms: _583  and  _584
REMARK  236  A    between atoms: _583  and  _586
REMARK  237  A    between atoms: _586  and  _587
REMARK  238  A    between atoms: _587  and  _588
REMARK  239  A    between atoms: _593  and  _595
REMARK  240  A    between atoms: _595  and  _596
REMARK  241  A    between atoms: _595  and  _598
REMARK  242  A    between atoms: _598  and  _599
REMARK  243  A    between atoms: _601  and  _603
REMARK  244  A    between atoms: _603  and  _604
REMARK  245  A    between atoms: _603  and  _606
REMARK  246  A    between atoms: _606  and  _607
REMARK  247  A    between atoms: _610  and  _612
REMARK  248  A    between atoms: _612  and  _613
REMARK  249  A    between atoms: _612  and  _615
REMARK  250  A    between atoms: _615  and  _616
REMARK  251  A    between atoms: _619  and  _621
REMARK  252  A    between atoms: _621  and  _622
REMARK  253  A    between atoms: _621  and  _624
REMARK  254  A    between atoms: _627  and  _629
REMARK  255  A    between atoms: _629  and  _630
REMARK  256  A    between atoms: _632  and  _634
REMARK  257  A    between atoms: _634  and  _635
REMARK  258  A    between atoms: _638  and  _640
REMARK  259  A    between atoms: _640  and  _641
REMARK  260  A    between atoms: _640  and  _643
REMARK  261  A    between atoms: _646  and  _648
REMARK  262  A    between atoms: _648  and  _649
REMARK  263  A    between atoms: _648  and  _651
REMARK  264  A    between atoms: _651  and  _652
REMARK  265  A    between atoms: _652  and  _653
REMARK  266  A    between atoms: _655  and  _657
REMARK  267  A    between atoms: _657  and  _658
REMARK  268  A    between atoms: _657  and  _660
REMARK  269  A    between atoms: _660  and  _661
REMARK  270  A    between atoms: _661  and  _662
REMARK                            x       y       z     vdW  Elec       q    Type
REMARK                         _______ _______ _______ _____ _____    ______ ____
ROOT
ATOM      1  CG  TRP A   1       1.657 -12.902  36.972  0.00  0.00    -0.002 A 
ATOM      2  CD1 TRP A   1       2.660 -12.120  36.469  0.00  0.00    +0.068 A 
ATOM      3  NE1 TRP A   1       2.231 -11.458  35.349  0.00  0.00    -0.352 N 
ATOM      4  CE2 TRP A   1       0.930 -11.808  35.098  0.00  0.00    +0.056 A 
ATOM      5  CZ2 TRP A   1       0.067 -11.395  34.074  0.00  0.00    +0.017 A 
ATOM      6  CH2 TRP A   1      -1.203 -11.906  34.066  0.00  0.00    +0.001 A 
ATOM      7  CZ3 TRP A   1      -1.633 -12.817  35.051  0.00  0.00    +0.000 A 
ATOM      8  CE3 TRP A   1      -0.772 -13.232  36.072  0.00  0.00    +0.001 A 
ATOM      9  HE1 TRP A   1       2.800 -10.798  34.782  0.00  0.00    +0.166 HD
ATOM     10  CD2 TRP A   1       0.535 -12.719  36.100  0.00  0.00    +0.013 A 
ENDROOT
BRANCH   1  11
ATOM     11  CB  TRP A   1       1.693 -13.695  38.257  0.00  0.00    +0.053 C 
BRANCH  11  12
ATOM     12  CA  TRP A   1       1.987 -15.211  38.190  0.00  0.00    +0.137 C 
BRANCH  12  13
ATOM     13  N   TRP A   1       3.235 -15.529  37.485  0.00  0.00    -0.239 NA
ATOM     14  H   TRP A   1       3.339 -15.282  36.480  0.00  0.00    +0.142 HD
ENDBRANCH  12  13
BRANCH  12  15
ATOM     15  C   TRP A   1       0.815 -15.976  37.567  0.00  0.00    +0.224 C 
ATOM     16  O   TRP A   1       0.787 -16.217  36.363  0.00  0.00    -0.287 OA
ENDBRANCH  12  15
ENDBRANCH  11  12
ENDBRANCH   1  11
TORSDOF 4
REMARK  Name = ../refined-set-2016/2g94/2g94_pocket.pdb
REMARK  270 active torsions:
REMARK  status: ('A' for Active; 'I' for Inactive)
REMARK    1  A    between atoms: _1  and  _3
REMARK    2  A    between atoms: _3  and  _4
REMARK    3  A    between atoms: _3  and  _6
REMARK    4  A    between atoms: _6  and  _7
REMARK    5  A    between atoms: _7  and  _8
REMARK    6  A    between atoms: _8  and  _9
REMARK    7  A    between atoms: _9  and  _10
REMARK    8  A    between atoms: _14  and  _16
REMARK    9  A    between atoms: _16  and  _17
REMARK   10  A    between atoms: _16  and  _19
REMARK   11  A    between atoms: _19  and  _20
REMARK   12  A    between atoms: _22  and  _24
REMARK   13  A    between atoms: _24  and  _25
REMARK   14  A    between atoms: _27  and  _29
REMARK   15  A    between atoms: _29  and  _30
REMARK   16  A    between atoms: _29  and  _32
REMARK   17  A    between atoms: _32  and  _33
REMARK   18  A    between atoms: _33  and  _34
REMARK   19  A    between atoms: _39  and  _41
REMARK   20  A    between atoms: _41  and  _42
REMARK   21  A    between atoms: _44  and  _46
REMARK   22  A    between atoms: _46  and  _47
REMARK   23  A    between atoms: _46  and  _49
REMARK   24  A    between atoms: _49  and  _50
REMARK   25  A    between atoms: _55  and  _56
REMARK   26  A    between atoms: _58  and  _60
REMARK   27  A    between atoms: _60  and  _61
REMARK   28  A    between atoms: _60  and  _63
REMARK   29  A    between atoms: _63  and  _64
REMARK   30  A    between atoms: _69  and  _70
REMARK   31  A    between atoms: _72  and  _74
REMARK   32  A    between atoms: _74  and  _75
REMARK   33  A    between atoms: _74  and  _77
REMARK   34  A    between atoms: _77  and  _78
REMARK   35  A    between atoms: _81  and  _83
REMARK   36  A    between atoms: _83  and  _84
REMARK   37  A    between atoms: _83  and  _86
REMARK   38  A    between atoms: _89  and  _91
REMARK   39  A    between atoms: _91  and  _92
REMARK   40  A    between atoms: _91  and  _94
REMARK   41  A    between atoms: _94  and  _95
REMARK   42  A    between atoms: _98  and  _100
REMARK   43  A    between atoms: _100  and  _101
REMARK   44  A    between atoms: _100  and  _103
REMARK   45  A    between atoms: _103  and  _104
REMARK   46  A    between atoms: _107  and  _109
REMARK   47  A    between atoms: _109  and  _110
REMARK   48  A    between atoms: _112  and  _114
REMARK   49  A    between atoms: _114  and  _115
REMARK   50  A    between atoms: _114  and  _117
REMARK   51  A    between atoms: _117  and  _118
REMARK   52  A    between atoms: _120  and  _122
REMARK   53  A    between atoms: _122  and  _123
REMARK   54  A    between atoms: _122  and  _125
REMARK   55  A    between atoms: _125  and  _126
REMARK   56  A    between atoms: _128  and  _130
REMARK   57  A    between atoms: _130  and  _131
REMARK   58  A    between atoms: _130  and  _133
REMARK   59  A    between atoms: _133  and  _134
REMARK   60  A    between atoms: _139  and  _141
REMARK   61  A    between atoms: _141  and  _142
REMARK   62  A    between atoms: _141  and  _144
REMARK   63  A    between atoms: _144  and  _145
REMARK   64  A    between atoms: _150  and  _151
REMARK   65  A    between atoms: _153  and  _155
REMARK   66  A    between atoms: _155  and  _156
REMARK   67  A    between atoms: _155  and  _158
REMARK   68  A    between atoms: _162  and  _163
REMARK   69  A    between atoms: _168  and  _170
REMARK   70  A    between atoms: _170  and  _171
REMARK   71  A    between atoms: _170  and  _173
REMARK   72  A    between atoms: _173  and  _174
REMARK   73  A    between atoms: _179  and  _180
REMARK   74  A    between atoms: _182  and  _184
REMARK   75  A    between atoms: _184  and  _185
REMARK   76  A    between atoms: _184  and  _187
REMARK   77  A    between atoms: _187  and  _188
REMARK   78  A    between atoms: _191  and  _193
REMARK   79  A    between atoms: _193  and  _194
REMARK   80  A    between atoms: _193  and  _196
REMARK   81  A    between atoms: _196  and  _197
REMARK   82  A    between atoms: _197  and  _198
REMARK   83  A    between atoms: _203  and  _205
REMARK   84  A    between atoms: _205  and  _206
REMARK   85  A    between atoms: _208  and  _210
REMARK   86  A    between atoms: _210  and  _211
REMARK   87  A    between atoms: _210  and  _213
REMARK   88  A    between atoms: _213  and  _214
REMARK   89  A    between atoms: _214  and  _215
REMARK   90  A    between atoms: _215  and  _216
REMARK   91  A    between atoms: _216  and  _217
REMARK   92  A    between atoms: _221  and  _223
REMARK   93  A    between atoms: _223  and  _224
REMARK   94  A    between atoms: _223  and  _226
REMARK   95  A    between atoms: _226  and  _227
REMARK   96  A    between atoms: _237  and  _239
REMARK   97  A    between atoms: _239  and  _240
REMARK   98  A    between atoms: _239  and  _242
REMARK   99  A    between atoms: _242  and  _243
REMARK  100  A    between atoms: _246  and  _248
REMARK  101  A    between atoms: _248  and  _249
REMARK  102  A    between atoms: _248  and  _251
REMARK  103  A    between atoms: _251  and  _252
REMARK  104  A    between atoms: _252  and  _253
REMARK  105  A    between atoms: _253  and  _254
REMARK  106  A    between atoms: _254  and  _255
REMARK  107  A    between atoms: _259  and  _261
REMARK  108  A    between atoms: _261  and  _262
REMARK  109  A    between atoms: _261  and  _264
REMARK  110  A    between atoms: _264  and  _265
REMARK  111  A    between atoms: _271  and  _273
REMARK  112  A    between atoms: _273  and  _274
REMARK  113  A    between atoms: _273  and  _276
REMARK  114  A    between atoms: _276  and  _277
REMARK  115  A    between atoms: _283  and  _285
REMARK  116  A    between atoms: _285  and  _286
REMARK  117  A    between atoms: _285  and  _288
REMARK  118  A    between atoms: _288  and  _289
REMARK  119  A    between atoms: _292  and  _294
REMARK  120  A    between atoms: _294  and  _295
REMARK  121  A    between atoms: _294  and  _297
REMARK  122  A    between atoms: _297  and  _298
REMARK  123  A    between atoms: _300  and  _302
REMARK  124  A    between atoms: _302  and  _303
REMARK  125  A    between atoms: _302  and  _305
REMARK  126  A    between atoms: _305  and  _306
REMARK  127  A    between atoms: _316  and  _318
REMARK  128  A    between atoms: _318  and  _319
REMARK  129  A    between atoms: _321  and  _323
REMARK  130  A    between atoms: _323  and  _324
REMARK  131  A    between atoms: _323  and  _326
REMARK  132  A    between atoms: _326  and  _327
REMARK  133  A    between atoms: _330  and  _332
REMARK  134  A    between atoms: _332  and  _333
REMARK  135  A    between atoms: _332  and  _335
REMARK  136  A    between atoms: _335  and  _336
REMARK  137  A    between atoms: _339  and  _341
REMARK  138  A    between atoms: _341  and  _342
REMARK  139  A    between atoms: _341  and  _344
REMARK  140  A    between atoms: _344  and  _345
REMARK  141  A    between atoms: _348  and  _350
REMARK  142  A    between atoms: _350  and  _351
REMARK  143  A    between atoms: _354  and  _356
REMARK  144  A    between atoms: _356  and  _357
REMARK  145  A    between atoms: _356  and  _359
REMARK  146  A    between atoms: _359  and  _360
REMARK  147  A    between atoms: _365  and  _366
REMARK  148  A    between atoms: _368  and  _370
REMARK  149  A    between atoms: _370  and  _371
REMARK  150  A    between atoms: _370  and  _373
REMARK  151  A    between atoms: _373  and  _374
REMARK  152  A    between atoms: _374  and  _375
REMARK  153  A    between atoms: _378  and  _380
REMARK  154  A    between atoms: _380  and  _381
REMARK  155  A    between atoms: _380  and  _383
REMARK  156  A    between atoms: _383  and  _384
REMARK  157  A    between atoms: _387  and  _389
REMARK  158  A    between atoms: _389  and  _390
REMARK  159  A    between atoms: _393  and  _395
REMARK  160  A    between atoms: _395  and  _396
REMARK  161  A    between atoms: _395  and  _398
REMARK  162  A    between atoms: _398  and  _399
REMARK  163  A    between atoms: _399  and  _400
REMARK  164  A    between atoms: _400  and  _401
REMARK  165  A    between atoms: _410  and  _412
REMARK  166  A    between atoms: _412  and  _413
REMARK  167  A    between atoms: _412  and  _415
REMARK  168  A    between atoms: _415  and  _416
REMARK  169  A    between atoms: _419  and  _421
REMARK  170  A    between atoms: _421  and  _422
REMARK  171  A    between atoms: _421  and  _424
REMARK  172  A    between atoms: _424  and  _425
REMARK  173  A    between atoms: _435  and  _437
REMARK  174  A    between atoms: _437  and  _438
REMARK  175  A    between atoms: _437  and  _440
REMARK  176  A    between atoms: _440  and  _441
REMARK  177  A    between atoms: _446  and  _447
REMARK  178  A    between atoms: _449  and  _451
REMARK  179  A    between atoms: _451  and  _452
REMARK  180  A    between atoms: _451  and  _454
REMARK  181  A    between atoms: _454  and  _455
REMARK  182  A    between atoms: _455  and  _456
REMARK  183  A    between atoms: _456  and  _457
REMARK  184  A    between atoms: _457  and  _458
REMARK  185  A    between atoms: _462  and  _464
REMARK  186  A    between atoms: _464  and  _465
REMARK  187  A    between atoms: _464  and  _467
REMARK  188  A    between atoms: _467  and  _468
REMARK  189  A    between atoms: _471  and  _473
REMARK  190  A    between atoms: _473  and  _474
REMARK  191  A    between atoms: _473  and  _476
REMARK  192  A    between atoms: _479  and  _481
REMARK  193  A    between atoms: _481  and  _482
REMARK  194  A    between atoms: _481  and  _484
REMARK  195  A    between atoms: _484  and  _485
REMARK  196  A    between atoms: _488  and  _490
REMARK  197  A    between atoms: _490  and  _491
REMARK  198  A    between atoms: _490  and  _493
REMARK  199  A    between atoms: _493  and  _494
REMARK  200  A    between atoms: _496  and  _498
REMARK  201  A    between atoms: _498  and  _499
REMARK  202  A    between atoms: _501  and  _503
REMARK  203  A    between atoms: _503  and  _504
REMARK  204  A    between atoms: _503  and  _506
REMARK  205  A    between atoms: _506  and  _507
REMARK  206  A    between atoms: _510  and  _512
REMARK  207  A    between atoms: _512  and  _513
REMARK  208  A    between atoms: _512  and  _515
REMARK  209  A    between atoms: _515  and  _516
REMARK  210  A    between atoms: _519  and  _521
REMARK  211  A    between atoms: _521  and  _522
REMARK  212  A    between atoms: _521  and  _524
REMARK  213  A    between atoms: _524  and  _525
REMARK  214  A    between atoms: _530  and  _532
REMARK  215  A    between atoms: _532  and  _533
REMARK  216  A    between atoms: _532  and  _535
REMARK  217  A    between atoms: _535  and  _536
REMARK  218  A    between atoms: _539  and  _541
REMARK  219  A    between atoms: _541  and  _542
REMARK  220  A    between atoms: _541  and  _544
REMARK  221  A    between atoms: _544  and  _545
REMARK  222  A    between atoms: _545  and  _546
REMARK  223  A    between atoms: _546  and  _547
REMARK  224  A    between atoms: _556  and  _558
REMARK  225  A    between atoms: _558  and  _559
REMARK  226  A    between atoms: _558  and  _561
REMARK  227  A    between atoms: _561  and  _562
REMARK  228  A    between atoms: _562  and  _563
REMARK  229  A    between atoms: _563  and  _564
REMARK  230  A    between atoms: _573  and  _575
REMARK  231  A    between atoms: _575  and  _576
REMARK  232  A    between atoms: _575  and  _578
REMARK  233  A    between atoms: _578  and  _579
REMARK  234  A    between atoms: _581  and  _583
REMARK  235  A    between atoms: _583  and  _584
REMARK  236  A    between atoms: _583  and  _586
REMARK  237  A    between atoms: _586  and  _587
REMARK  238  A    between atoms: _587  and  _588
REMARK  239  A    between atoms: _593  and  _595
REMARK  240  A    between atoms: _595  and  _596
REMARK  241  A    between atoms: _595  and  _598
REMARK  242  A    between atoms: _598  and  _599
REMARK  243  A    between atoms: _601  and  _603
REMARK  244  A    between atoms: _603  and  _604
REMARK  245  A    between atoms: _603  and  _606
REMARK  246  A    between atoms: _606  and  _607
REMARK  247  A    between atoms: _610  and  _612
REMARK  248  A    between atoms: _612  and  _613
REMARK  249  A    between atoms: _612  and  _615
REMARK  250  A    between atoms: _615  and  _616
REMARK  251  A    between atoms: _619  and  _621
REMARK  252  A    between atoms: _621  and  _622
REMARK  253  A    between atoms: _621  and  _624
REMARK  254  A    between atoms: _627  and  _629
REMARK  255  A    between atoms: _629  and  _630
REMARK  256  A    between atoms: _632  and  _634
REMARK  257  A    between atoms: _634  and  _635
REMARK  258  A    between atoms: _638  and  _640
REMARK  259  A    between atoms: _640  and  _641
REMARK  260  A    between atoms: _640  and  _643
REMARK  261  A    between atoms: _646  and  _648
REMARK  262  A    between atoms: _648  and  _649
REMARK  263  A    between atoms: _648  and  _651
REMARK  264  A    between atoms: _651  and  _652
REMARK  265  A    between atoms: _652  and  _653
REMARK  266  A    between atoms: _655  and  _657
REMARK  267  A    between atoms: _657  and  _658
REMARK  268  A    between atoms: _657  and  _660
REMARK  269  A    between atoms: _660  and  _661
REMARK  270  A    between atoms: _661  and  _662
REMARK                            x       y       z     vdW  Elec       q    Type
REMARK                         _______ _______ _______ _____ _____    ______ ____
ROOT
ATOM      1  CA  ILE A   2      -4.759 -10.965  39.200  0.00  0.00    +0.148 C 
ENDROOT
BRANCH   1   3
ATOM      2  C   GLY A   1      -3.749 -13.162  38.967  0.00  0.00    +0.240 C 
ATOM      3  N   ILE A   2      -4.829 -12.416  39.163  0.00  0.00    -0.297 N 
ATOM      4  H   ILE A   2      -5.750 -12.882  39.294  0.00  0.00    +0.150 HD
ATOM      5  O   GLY A   1      -2.619 -12.695  38.823  0.00  0.00    -0.274 OA
BRANCH   2   6
ATOM      6  CA  GLY A   1      -3.961 -14.656  38.937  0.00  0.00    +0.169 C 
BRANCH   6   7
ATOM      7  N   GLY A   1      -2.690 -15.311  38.698  0.00  0.00    -0.236 NA
ATOM      8  H   GLY A   1      -1.801 -14.821  38.925  0.00  0.00    +0.142 HD
ENDBRANCH   6   7
ENDBRANCH   2   6
ENDBRANCH   1   3
BRANCH   1   9
ATOM      9  C   ILE A   2      -5.608 -10.432  40.354  0.00  0.00    +0.241 C 
ATOM     10  N   LEU A   3      -5.070  -9.442  41.065  0.00  0.00    -0.298 N 
ATOM     11  H   LEU A   3      -4.118  -9.105  40.816  0.00  0.00    +0.150 HD
ATOM     12  O   ILE A   2      -6.707 -10.941  40.613  0.00  0.00    -0.273 OA
BRANCH  10  13
ATOM     13  CA  LEU A   3      -5.768  -8.815  42.179  0.00  0.00    +0.137 C 
BRANCH  13  14
ATOM     14  C   LEU A   3      -6.148  -7.386  41.789  0.00  0.00    +0.227 C 
ATOM     15  O   LEU A   3      -5.312  -6.468  41.858  0.00  0.00    -0.286 OA
ENDBRANCH  13  14
BRANCH  13  16
ATOM     16  CB  LEU A   3      -4.866  -8.788  43.416  0.00  0.00    +0.028 C 
BRANCH  16  17
ATOM     17  CG  LEU A   3      -5.331  -7.974  44.624  0.00  0.00    +0.002 C 
ATOM     18  CD2 LEU A   3      -4.269  -8.015  45.723  0.00  0.00    +0.000 C 
ATOM     19  CD1 LEU A   3      -6.646  -8.544  45.125  0.00  0.00    +0.000 C 
ENDBRANCH  16  17
ENDBRANCH  13  16
ENDBRANCH  10  13
ENDBRANCH   1   9
BRANCH   1  20
ATOM     20  CB  ILE A   2      -5.267 -10.368  37.862  0.00  0.00    +0.027 C 
ATOM     21  CG2 ILE A   2      -6.673 -10.911  37.550  0.00  0.00    +0.002 C 
BRANCH  20  22
ATOM     22  CG1 ILE A   2      -5.296  -8.838  37.935  0.00  0.00    +0.002 C 
ATOM     23  CD1 ILE A   2      -5.517  -8.166  36.584  0.00  0.00    +0.000 C 
ENDBRANCH  20  22
ENDBRANCH   1  20
TORSDOF 10
REMARK  Name = ../refined-set-2016/2g94/2g94_pocket.pdb
REMARK  270 active torsions:
REMARK  status: ('A' for Active; 'I' for Inactive)
REMARK    1  A    between atoms: _1  and  _3
REMARK    2  A    between atoms: _3  and  _4
REMARK    3  A    between atoms: _3  and  _6
REMARK    4  A    between atoms: _6  and  _7
REMARK    5  A    between atoms: _7  and  _8
REMARK    6  A    between atoms: _8  and  _9
REMARK    7  A    between atoms: _9  and  _10
REMARK    8  A    between atoms: _14  and  _16
REMARK    9  A    between atoms: _16  and  _17
REMARK   10  A    between atoms: _16  and  _19
REMARK   11  A    between atoms: _19  and  _20
REMARK   12  A    between atoms: _22  and  _24
REMARK   13  A    between atoms: _24  and  _25
REMARK   14  A    between atoms: _27  and  _29
REMARK   15  A    between atoms: _29  and  _30
REMARK   16  A    between atoms: _29  and  _32
REMARK   17  A    between atoms: _32  and  _33
REMARK   18  A    between atoms: _33  and  _34
REMARK   19  A    between atoms: _39  and  _41
REMARK   20  A    between atoms: _41  and  _42
REMARK   21  A    between atoms: _44  and  _46
REMARK   22  A    between atoms: _46  and  _47
REMARK   23  A    between atoms: _46  and  _49
REMARK   24  A    between atoms: _49  and  _50
REMARK   25  A    between atoms: _55  and  _56
REMARK   26  A    between atoms: _58  and  _60
REMARK   27  A    between atoms: _60  and  _61
REMARK   28  A    between atoms: _60  and  _63
REMARK   29  A    between atoms: _63  and  _64
REMARK   30  A    between atoms: _69  and  _70
REMARK   31  A    between atoms: _72  and  _74
REMARK   32  A    between atoms: _74  and  _75
REMARK   33  A    between atoms: _74  and  _77
REMARK   34  A    between atoms: _77  and  _78
REMARK   35  A    between atoms: _81  and  _83
REMARK   36  A    between atoms: _83  and  _84
REMARK   37  A    between atoms: _83  and  _86
REMARK   38  A    between atoms: _89  and  _91
REMARK   39  A    between atoms: _91  and  _92
REMARK   40  A    between atoms: _91  and  _94
REMARK   41  A    between atoms: _94  and  _95
REMARK   42  A    between atoms: _98  and  _100
REMARK   43  A    between atoms: _100  and  _101
REMARK   44  A    between atoms: _100  and  _103
REMARK   45  A    between atoms: _103  and  _104
REMARK   46  A    between atoms: _107  and  _109
REMARK   47  A    between atoms: _109  and  _110
REMARK   48  A    between atoms: _112  and  _114
REMARK   49  A    between atoms: _114  and  _115
REMARK   50  A    between atoms: _114  and  _117
REMARK   51  A    between atoms: _117  and  _118
REMARK   52  A    between atoms: _120  and  _122
REMARK   53  A    between atoms: _122  and  _123
REMARK   54  A    between atoms: _122  and  _125
REMARK   55  A    between atoms: _125  and  _126
REMARK   56  A    between atoms: _128  and  _130
REMARK   57  A    between atoms: _130  and  _131
REMARK   58  A    between atoms: _130  and  _133
REMARK   59  A    between atoms: _133  and  _134
REMARK   60  A    between atoms: _139  and  _141
REMARK   61  A    between atoms: _141  and  _142
REMARK   62  A    between atoms: _141  and  _144
REMARK   63  A    between atoms: _144  and  _145
REMARK   64  A    between atoms: _150  and  _151
REMARK   65  A    between atoms: _153  and  _155
REMARK   66  A    between atoms: _155  and  _156
REMARK   67  A    between atoms: _155  and  _158
REMARK   68  A    between atoms: _162  and  _163
REMARK   69  A    between atoms: _168  and  _170
REMARK   70  A    between atoms: _170  and  _171
REMARK   71  A    between atoms: _170  and  _173
REMARK   72  A    between atoms: _173  and  _174
REMARK   73  A    between atoms: _179  and  _180
REMARK   74  A    between atoms: _182  and  _184
REMARK   75  A    between atoms: _184  and  _185
REMARK   76  A    between atoms: _184  and  _187
REMARK   77  A    between atoms: _187  and  _188
REMARK   78  A    between atoms: _191  and  _193
REMARK   79  A    between atoms: _193  and  _194
REMARK   80  A    between atoms: _193  and  _196
REMARK   81  A    between atoms: _196  and  _197
REMARK   82  A    between atoms: _197  and  _198
REMARK   83  A    between atoms: _203  and  _205
REMARK   84  A    between atoms: _205  and  _206
REMARK   85  A    between atoms: _208  and  _210
REMARK   86  A    between atoms: _210  and  _211
REMARK   87  A    between atoms: _210  and  _213
REMARK   88  A    between atoms: _213  and  _214
REMARK   89  A    between atoms: _214  and  _215
REMARK   90  A    between atoms: _215  and  _216
REMARK   91  A    between atoms: _216  and  _217
REMARK   92  A    between atoms: _221  and  _223
REMARK   93  A    between atoms: _223  and  _224
REMARK   94  A    between atoms: _223  and  _226
REMARK   95  A    between atoms: _226  and  _227
REMARK   96  A    between atoms: _237  and  _239
REMARK   97  A    between atoms: _239  and  _240
REMARK   98  A    between atoms: _239  and  _242
REMARK   99  A    between atoms: _242  and  _243
REMARK  100  A    between atoms: _246  and  _248
REMARK  101  A    between atoms: _248  and  _249
REMARK  102  A    between atoms: _248  and  _251
REMARK  103  A    between atoms: _251  and  _252
REMARK  104  A    between atoms: _252  and  _253
REMARK  105  A    between atoms: _253  and  _254
REMARK  106  A    between atoms: _254  and  _255
REMARK  107  A    between atoms: _259  and  _261
REMARK  108  A    between atoms: _261  and  _262
REMARK  109  A    between atoms: _261  and  _264
REMARK  110  A    between atoms: _264  and  _265
REMARK  111  A    between atoms: _271  and  _273
REMARK  112  A    between atoms: _273  and  _274
REMARK  113  A    between atoms: _273  and  _276
REMARK  114  A    between atoms: _276  and  _277
REMARK  115  A    between atoms: _283  and  _285
REMARK  116  A    between atoms: _285  and  _286
REMARK  117  A    between atoms: _285  and  _288
REMARK  118  A    between atoms: _288  and  _289
REMARK  119  A    between atoms: _292  and  _294
REMARK  120  A    between atoms: _294  and  _295
REMARK  121  A    between atoms: _294  and  _297
REMARK  122  A    between atoms: _297  and  _298
REMARK  123  A    between atoms: _300  and  _302
REMARK  124  A    between atoms: _302  and  _303
REMARK  125  A    between atoms: _302  and  _305
REMARK  126  A    between atoms: _305  and  _306
REMARK  127  A    between atoms: _316  and  _318
REMARK  128  A    between atoms: _318  and  _319
REMARK  129  A    between atoms: _321  and  _323
REMARK  130  A    between atoms: _323  and  _324
REMARK  131  A    between atoms: _323  and  _326
REMARK  132  A    between atoms: _326  and  _327
REMARK  133  A    between atoms: _330  and  _332
REMARK  134  A    between atoms: _332  and  _333
REMARK  135  A    between atoms: _332  and  _335
REMARK  136  A    between atoms: _335  and  _336
REMARK  137  A    between atoms: _339  and  _341
REMARK  138  A    between atoms: _341  and  _342
REMARK  139  A    between atoms: _341  and  _344
REMARK  140  A    between atoms: _344  and  _345
REMARK  141  A    between atoms: _348  and  _350
REMARK  142  A    between atoms: _350  and  _351
REMARK  143  A    between atoms: _354  and  _356
REMARK  144  A    between atoms: _356  and  _357
REMARK  145  A    between atoms: _356  and  _359
REMARK  146  A    between atoms: _359  and  _360
REMARK  147  A    between atoms: _365  and  _366
REMARK  148  A    between atoms: _368  and  _370
REMARK  149  A    between atoms: _370  and  _371
REMARK  150  A    between atoms: _370  and  _373
REMARK  151  A    between atoms: _373  and  _374
REMARK  152  A    between atoms: _374  and  _375
REMARK  153  A    between atoms: _378  and  _380
REMARK  154  A    between atoms: _380  and  _381
REMARK  155  A    between atoms: _380  and  _383
REMARK  156  A    between atoms: _383  and  _384
REMARK  157  A    between atoms: _387  and  _389
REMARK  158  A    between atoms: _389  and  _390
REMARK  159  A    between atoms: _393  and  _395
REMARK  160  A    between atoms: _395  and  _396
REMARK  161  A    between atoms: _395  and  _398
REMARK  162  A    between atoms: _398  and  _399
REMARK  163  A    between atoms: _399  and  _400
REMARK  164  A    between atoms: _400  and  _401
REMARK  165  A    between atoms: _410  and  _412
REMARK  166  A    between atoms: _412  and  _413
REMARK  167  A    between atoms: _412  and  _415
REMARK  168  A    between atoms: _415  and  _416
REMARK  169  A    between atoms: _419  and  _421
REMARK  170  A    between atoms: _421  and  _422
REMARK  171  A    between atoms: _421  and  _424
REMARK  172  A    between atoms: _424  and  _425
REMARK  173  A    between atoms: _435  and  _437
REMARK  174  A    between atoms: _437  and  _438
REMARK  175  A    between atoms: _437  and  _440
REMARK  176  A    between atoms: _440  and  _441
REMARK  177  A    between atoms: _446  and  _447
REMARK  178  A    between atoms: _449  and  _451
REMARK  179  A    between atoms: _451  and  _452
REMARK  180  A    between atoms: _451  and  _454
REMARK  181  A    between atoms: _454  and  _455
REMARK  182  A    between atoms: _455  and  _456
REMARK  183  A    between atoms: _456  and  _457
REMARK  184  A    between atoms: _457  and  _458
REMARK  185  A    between atoms: _462  and  _464
REMARK  186  A    between atoms: _464  and  _465
REMARK  187  A    between atoms: _464  and  _467
REMARK  188  A    between atoms: _467  and  _468
REMARK  189  A    between atoms: _471  and  _473
REMARK  190  A    between atoms: _473  and  _474
REMARK  191  A    between atoms: _473  and  _476
REMARK  192  A    between atoms: _479  and  _481
REMARK  193  A    between atoms: _481  and  _482
REMARK  194  A    between atoms: _481  and  _484
REMARK  195  A    between atoms: _484  and  _485
REMARK  196  A    between atoms: _488  and  _490
REMARK  197  A    between atoms: _490  and  _491
REMARK  198  A    between atoms: _490  and  _493
REMARK  199  A    between atoms: _493  and  _494
REMARK  200  A    between atoms: _496  and  _498
REMARK  201  A    between atoms: _498  and  _499
REMARK  202  A    between atoms: _501  and  _503
REMARK  203  A    between atoms: _503  and  _504
REMARK  204  A    between atoms: _503  and  _506
REMARK  205  A    between atoms: _506  and  _507
REMARK  206  A    between atoms: _510  and  _512
REMARK  207  A    between atoms: _512  and  _513
REMARK  208  A    between atoms: _512  and  _515
REMARK  209  A    between atoms: _515  and  _516
REMARK  210  A    between atoms: _519  and  _521
REMARK  211  A    between atoms: _521  and  _522
REMARK  212  A    between atoms: _521  and  _524
REMARK  213  A    between atoms: _524  and  _525
REMARK  214  A    between atoms: _530  and  _532
REMARK  215  A    between atoms: _532  and  _533
REMARK  216  A    between atoms: _532  and  _535
REMARK  217  A    between atoms: _535  and  _536
REMARK  218  A    between atoms: _539  and  _541
REMARK  219  A    between atoms: _541  and  _542
REMARK  220  A    between atoms: _541  and  _544
REMARK  221  A    between atoms: _544  and  _545
REMARK  222  A    between atoms: _545  and  _546
REMARK  223  A    between atoms: _546  and  _547
REMARK  224  A    between atoms: _556  and  _558
REMARK  225  A    between atoms: _558  and  _559
REMARK  226  A    between atoms: _558  and  _561
REMARK  227  A    between atoms: _561  and  _562
REMARK  228  A    between atoms: _562  and  _563
REMARK  229  A    between atoms: _563  and  _564
REMARK  230  A    between atoms: _573  and  _575
REMARK  231  A    between atoms: _575  and  _576
REMARK  232  A    between atoms: _575  and  _578
REMARK  233  A    between atoms: _578  and  _579
REMARK  234  A    between atoms: _581  and  _583
REMARK  235  A    between atoms: _583  and  _584
REMARK  236  A    between atoms: _583  and  _586
REMARK  237  A    between atoms: _586  and  _587
REMARK  238  A    between atoms: _587  and  _588
REMARK  239  A    between atoms: _593  and  _595
REMARK  240  A    between atoms: _595  and  _596
REMARK  241  A    between atoms: _595  and  _598
REMARK  242  A    between atoms: _598  and  _599
REMARK  243  A    between atoms: _601  and  _603
REMARK  244  A    between atoms: _603  and  _604
REMARK  245  A    between atoms: _603  and  _606
REMARK  246  A    between atoms: _606  and  _607
REMARK  247  A    between atoms: _610  and  _612
REMARK  248  A    between atoms: _612  and  _613
REMARK  249  A    between atoms: _612  and  _615
REMARK  250  A    between atoms: _615  and  _616
REMARK  251  A    between atoms: _619  and  _621
REMARK  252  A    between atoms: _621  and  _622
REMARK  253  A    between atoms: _621  and  _624
REMARK  254  A    between atoms: _627  and  _629
REMARK  255  A    between atoms: _629  and  _630
REMARK  256  A    between atoms: _632  and  _634
REMARK  257  A    between atoms: _634  and  _635
REMARK  258  A    between atoms: _638  and  _640
REMARK  259  A    between atoms: _640  and  _641
REMARK  260  A    between atoms: _640  and  _643
REMARK  261  A    between atoms: _646  and  _648
REMARK  262  A    between atoms: _648  and  _649
REMARK  263  A    between atoms: _648  and  _651
REMARK  264  A    between atoms: _651  and  _652
REMARK  265  A    between atoms: _652  and  _653
REMARK  266  A    between atoms: _655  and  _657
REMARK  267  A    between atoms: _657  and  _658
REMARK  268  A    between atoms: _657  and  _660
REMARK  269  A    between atoms: _660  and  _661
REMARK  270  A    between atoms: _661  and  _662
REMARK                            x       y       z     vdW  Elec       q    Type
REMARK                         _______ _______ _______ _____ _____    ______ ____
ROOT
ATOM      1  C   ALA A   2     -11.091  -0.761  42.705  0.00  0.00    +0.241 C 
ATOM      2  O   ALA A   2     -11.348  -1.788  43.345  0.00  0.00    -0.273 OA
ATOM      3  N   TYR A   3     -12.006   0.177  42.475  0.00  0.00    -0.298 N 
ATOM      4  H   TYR A   3     -11.773   0.982  41.860  0.00  0.00    +0.150 HD
ENDROOT
BRANCH   1   5
ATOM      5  CA  ALA A   2      -9.684  -0.534  42.117  0.00  0.00    +0.149 C 
ATOM      6  CB  ALA A   2      -9.751  -0.182  40.619  0.00  0.00    +0.031 C 
BRANCH   5   9
ATOM      7  C   LEU A   1      -8.305  -1.979  43.515  0.00  0.00    +0.238 C 
ATOM      8  O   LEU A   1      -8.474  -1.254  44.506  0.00  0.00    -0.274 OA
ATOM      9  N   ALA A   2      -8.843  -1.719  42.325  0.00  0.00    -0.297 N 
ATOM     10  H   ALA A   2      -8.665  -2.366  41.530  0.00  0.00    +0.150 HD
BRANCH   7  11
ATOM     11  CA  LEU A   1      -7.450  -3.238  43.622  0.00  0.00    +0.145 C 
BRANCH  11  12
ATOM     12  N   LEU A   1      -7.364  -4.036  42.406  0.00  0.00    -0.238 NA
ATOM     13  H   LEU A   1      -6.700  -3.753  41.657  0.00  0.00    +0.142 HD
ENDBRANCH  11  12
BRANCH  11  14
ATOM     14  CB  LEU A   1      -6.036  -2.866  44.067  0.00  0.00    +0.026 C 
BRANCH  14  15
ATOM     15  CG  LEU A   1      -5.225  -4.083  44.518  0.00  0.00    +0.002 C 
ATOM     16  CD2 LEU A   1      -5.726  -4.507  45.904  0.00  0.00    +0.000 C 
ATOM     17  CD1 LEU A   1      -3.717  -3.752  44.534  0.00  0.00    +0.000 C 
ENDBRANCH  14  15
ENDBRANCH  11  14
ENDBRANCH   7  11
ENDBRANCH   5   9
ENDBRANCH   1   5
BRANCH   3  18
ATOM     18  CA  TYR A   3     -13.331   0.089  43.075  0.00  0.00    +0.141 C 
BRANCH  18  19
ATOM     19  C   TYR A   3     -14.429  -0.743  42.391  0.00  0.00    +0.227 C 
ATOM     20  O   TYR A   3     -14.353  -1.076  41.206  0.00  0.00    -0.286 OA
ENDBRANCH  18  19
BRANCH  18  21
ATOM     21  CB  TYR A   3     -13.836   1.513  43.354  0.00  0.00    +0.054 C 
BRANCH  21  22
ATOM     22  CG  TYR A   3     -12.867   2.351  44.185  0.00  0.00    -0.020 A 
ATOM     23  CD2 TYR A   3     -12.908   2.322  45.587  0.00  0.00    -0.001 A 
ATOM     24  CE2 TYR A   3     -12.053   3.123  46.358  0.00  0.00    +0.036 A 
ATOM     25  CZ  TYR A   3     -11.140   3.966  45.720  0.00  0.00    +0.134 A 
ATOM     26  CE1 TYR A   3     -11.075   4.005  44.321  0.00  0.00    +0.036 A 
ATOM     27  CD1 TYR A   3     -11.936   3.198  43.569  0.00  0.00    -0.001 A 
BRANCH  25  28
ATOM     28  OH  TYR A   3     -10.313   4.779  46.465  0.00  0.00    -0.506 OA
ATOM     29  HH  TYR A   3     -10.863   5.393  47.013  0.00  0.00    +0.292 HD
ENDBRANCH  25  28
ENDBRANCH  21  22
ENDBRANCH  18  21
ENDBRANCH   3  18
TORSDOF 11
REMARK  Name = ../refined-set-2016/2g94/2g94_pocket.pdb
REMARK  270 active torsions:
REMARK  status: ('A' for Active; 'I' for Inactive)
REMARK    1  A    between atoms: _1  and  _3
REMARK    2  A    between atoms: _3  and  _4
REMARK    3  A    between atoms: _3  and  _6
REMARK    4  A    between atoms: _6  and  _7
REMARK    5  A    between atoms: _7  and  _8
REMARK    6  A    between atoms: _8  and  _9
REMARK    7  A    between atoms: _9  and  _10
REMARK    8  A    between atoms: _14  and  _16
REMARK    9  A    between atoms: _16  and  _17
REMARK   10  A    between atoms: _16  and  _19
REMARK   11  A    between atoms: _19  and  _20
REMARK   12  A    between atoms: _22  and  _24
REMARK   13  A    between atoms: _24  and  _25
REMARK   14  A    between atoms: _27  and  _29
REMARK   15  A    between atoms: _29  and  _30
REMARK   16  A    between atoms: _29  and  _32
REMARK   17  A    between atoms: _32  and  _33
REMARK   18  A    between atoms: _33  and  _34
REMARK   19  A    between atoms: _39  and  _41
REMARK   20  A    between atoms: _41  and  _42
REMARK   21  A    between atoms: _44  and  _46
REMARK   22  A    between atoms: _46  and  _47
REMARK   23  A    between atoms: _46  and  _49
REMARK   24  A    between atoms: _49  and  _50
REMARK   25  A    between atoms: _55  and  _56
REMARK   26  A    between atoms: _58  and  _60
REMARK   27  A    between atoms: _60  and  _61
REMARK   28  A    between atoms: _60  and  _63
REMARK   29  A    between atoms: _63  and  _64
REMARK   30  A    between atoms: _69  and  _70
REMARK   31  A    between atoms: _72  and  _74
REMARK   32  A    between atoms: _74  and  _75
REMARK   33  A    between atoms: _74  and  _77
REMARK   34  A    between atoms: _77  and  _78
REMARK   35  A    between atoms: _81  and  _83
REMARK   36  A    between atoms: _83  and  _84
REMARK   37  A    between atoms: _83  and  _86
REMARK   38  A    between atoms: _89  and  _91
REMARK   39  A    between atoms: _91  and  _92
REMARK   40  A    between atoms: _91  and  _94
REMARK   41  A    between atoms: _94  and  _95
REMARK   42  A    between atoms: _98  and  _100
REMARK   43  A    between atoms: _100  and  _101
REMARK   44  A    between atoms: _100  and  _103
REMARK   45  A    between atoms: _103  and  _104
REMARK   46  A    between atoms: _107  and  _109
REMARK   47  A    between atoms: _109  and  _110
REMARK   48  A    between atoms: _112  and  _114
REMARK   49  A    between atoms: _114  and  _115
REMARK   50  A    between atoms: _114  and  _117
REMARK   51  A    between atoms: _117  and  _118
REMARK   52  A    between atoms: _120  and  _122
REMARK   53  A    between atoms: _122  and  _123
REMARK   54  A    between atoms: _122  and  _125
REMARK   55  A    between atoms: _125  and  _126
REMARK   56  A    between atoms: _128  and  _130
REMARK   57  A    between atoms: _130  and  _131
REMARK   58  A    between atoms: _130  and  _133
REMARK   59  A    between atoms: _133  and  _134
REMARK   60  A    between atoms: _139  and  _141
REMARK   61  A    between atoms: _141  and  _142
REMARK   62  A    between atoms: _141  and  _144
REMARK   63  A    between atoms: _144  and  _145
REMARK   64  A    between atoms: _150  and  _151
REMARK   65  A    between atoms: _153  and  _155
REMARK   66  A    between atoms: _155  and  _156
REMARK   67  A    between atoms: _155  and  _158
REMARK   68  A    between atoms: _162  and  _163
REMARK   69  A    between atoms: _168  and  _170
REMARK   70  A    between atoms: _170  and  _171
REMARK   71  A    between atoms: _170  and  _173
REMARK   72  A    between atoms: _173  and  _174
REMARK   73  A    between atoms: _179  and  _180
REMARK   74  A    between atoms: _182  and  _184
REMARK   75  A    between atoms: _184  and  _185
REMARK   76  A    between atoms: _184  and  _187
REMARK   77  A    between atoms: _187  and  _188
REMARK   78  A    between atoms: _191  and  _193
REMARK   79  A    between atoms: _193  and  _194
REMARK   80  A    between atoms: _193  and  _196
REMARK   81  A    between atoms: _196  and  _197
REMARK   82  A    between atoms: _197  and  _198
REMARK   83  A    between atoms: _203  and  _205
REMARK   84  A    between atoms: _205  and  _206
REMARK   85  A    between atoms: _208  and  _210
REMARK   86  A    between atoms: _210  and  _211
REMARK   87  A    between atoms: _210  and  _213
REMARK   88  A    between atoms: _213  and  _214
REMARK   89  A    between atoms: _214  and  _215
REMARK   90  A    between atoms: _215  and  _216
REMARK   91  A    between atoms: _216  and  _217
REMARK   92  A    between atoms: _221  and  _223
REMARK   93  A    between atoms: _223  and  _224
REMARK   94  A    between atoms: _223  and  _226
REMARK   95  A    between atoms: _226  and  _227
REMARK   96  A    between atoms: _237  and  _239
REMARK   97  A    between atoms: _239  and  _240
REMARK   98  A    between atoms: _239  and  _242
REMARK   99  A    between atoms: _242  and  _243
REMARK  100  A    between atoms: _246  and  _248
REMARK  101  A    between atoms: _248  and  _249
REMARK  102  A    between atoms: _248  and  _251
REMARK  103  A    between atoms: _251  and  _252
REMARK  104  A    between atoms: _252  and  _253
REMARK  105  A    between atoms: _253  and  _254
REMARK  106  A    between atoms: _254  and  _255
REMARK  107  A    between atoms: _259  and  _261
REMARK  108  A    between atoms: _261  and  _262
REMARK  109  A    between atoms: _261  and  _264
REMARK  110  A    between atoms: _264  and  _265
REMARK  111  A    between atoms: _271  and  _273
REMARK  112  A    between atoms: _273  and  _274
REMARK  113  A    between atoms: _273  and  _276
REMARK  114  A    between atoms: _276  and  _277
REMARK  115  A    between atoms: _283  and  _285
REMARK  116  A    between atoms: _285  and  _286
REMARK  117  A    between atoms: _285  and  _288
REMARK  118  A    between atoms: _288  and  _289
REMARK  119  A    between atoms: _292  and  _294
REMARK  120  A    between atoms: _294  and  _295
REMARK  121  A    between atoms: _294  and  _297
REMARK  122  A    between atoms: _297  and  _298
REMARK  123  A    between atoms: _300  and  _302
REMARK  124  A    between atoms: _302  and  _303
REMARK  125  A    between atoms: _302  and  _305
REMARK  126  A    between atoms: _305  and  _306
REMARK  127  A    between atoms: _316  and  _318
REMARK  128  A    between atoms: _318  and  _319
REMARK  129  A    between atoms: _321  and  _323
REMARK  130  A    between atoms: _323  and  _324
REMARK  131  A    between atoms: _323  and  _326
REMARK  132  A    between atoms: _326  and  _327
REMARK  133  A    between atoms: _330  and  _332
REMARK  134  A    between atoms: _332  and  _333
REMARK  135  A    between atoms: _332  and  _335
REMARK  136  A    between atoms: _335  and  _336
REMARK  137  A    between atoms: _339  and  _341
REMARK  138  A    between atoms: _341  and  _342
REMARK  139  A    between atoms: _341  and  _344
REMARK  140  A    between atoms: _344  and  _345
REMARK  141  A    between atoms: _348  and  _350
REMARK  142  A    between atoms: _350  and  _351
REMARK  143  A    between atoms: _354  and  _356
REMARK  144  A    between atoms: _356  and  _357
REMARK  145  A    between atoms: _356  and  _359
REMARK  146  A    between atoms: _359  and  _360
REMARK  147  A    between atoms: _365  and  _366
REMARK  148  A    between atoms: _368  and  _370
REMARK  149  A    between atoms: _370  and  _371
REMARK  150  A    between atoms: _370  and  _373
REMARK  151  A    between atoms: _373  and  _374
REMARK  152  A    between atoms: _374  and  _375
REMARK  153  A    between atoms: _378  and  _380
REMARK  154  A    between atoms: _380  and  _381
REMARK  155  A    between atoms: _380  and  _383
REMARK  156  A    between atoms: _383  and  _384
REMARK  157  A    between atoms: _387  and  _389
REMARK  158  A    between atoms: _389  and  _390
REMARK  159  A    between atoms: _393  and  _395
REMARK  160  A    between atoms: _395  and  _396
REMARK  161  A    between atoms: _395  and  _398
REMARK  162  A    between atoms: _398  and  _399
REMARK  163  A    between atoms: _399  and  _400
REMARK  164  A    between atoms: _400  and  _401
REMARK  165  A    between atoms: _410  and  _412
REMARK  166  A    between atoms: _412  and  _413
REMARK  167  A    between atoms: _412  and  _415
REMARK  168  A    between atoms: _415  and  _416
REMARK  169  A    between atoms: _419  and  _421
REMARK  170  A    between atoms: _421  and  _422
REMARK  171  A    between atoms: _421  and  _424
REMARK  172  A    between atoms: _424  and  _425
REMARK  173  A    between atoms: _435  and  _437
REMARK  174  A    between atoms: _437  and  _438
REMARK  175  A    between atoms: _437  and  _440
REMARK  176  A    between atoms: _440  and  _441
REMARK  177  A    between atoms: _446  and  _447
REMARK  178  A    between atoms: _449  and  _451
REMARK  179  A    between atoms: _451  and  _452
REMARK  180  A    between atoms: _451  and  _454
REMARK  181  A    between atoms: _454  and  _455
REMARK  182  A    between atoms: _455  and  _456
REMARK  183  A    between atoms: _456  and  _457
REMARK  184  A    between atoms: _457  and  _458
REMARK  185  A    between atoms: _462  and  _464
REMARK  186  A    between atoms: _464  and  _465
REMARK  187  A    between atoms: _464  and  _467
REMARK  188  A    between atoms: _467  and  _468
REMARK  189  A    between atoms: _471  and  _473
REMARK  190  A    between atoms: _473  and  _474
REMARK  191  A    between atoms: _473  and  _476
REMARK  192  A    between atoms: _479  and  _481
REMARK  193  A    between atoms: _481  and  _482
REMARK  194  A    between atoms: _481  and  _484
REMARK  195  A    between atoms: _484  and  _485
REMARK  196  A    between atoms: _488  and  _490
REMARK  197  A    between atoms: _490  and  _491
REMARK  198  A    between atoms: _490  and  _493
REMARK  199  A    between atoms: _493  and  _494
REMARK  200  A    between atoms: _496  and  _498
REMARK  201  A    between atoms: _498  and  _499
REMARK  202  A    between atoms: _501  and  _503
REMARK  203  A    between atoms: _503  and  _504
REMARK  204  A    between atoms: _503  and  _506
REMARK  205  A    between atoms: _506  and  _507
REMARK  206  A    between atoms: _510  and  _512
REMARK  207  A    between atoms: _512  and  _513
REMARK  208  A    between atoms: _512  and  _515
REMARK  209  A    between atoms: _515  and  _516
REMARK  210  A    between atoms: _519  and  _521
REMARK  211  A    between atoms: _521  and  _522
REMARK  212  A    between atoms: _521  and  _524
REMARK  213  A    between atoms: _524  and  _525
REMARK  214  A    between atoms: _530  and  _532
REMARK  215  A    between atoms: _532  and  _533
REMARK  216  A    between atoms: _532  and  _535
REMARK  217  A    between atoms: _535  and  _536
REMARK  218  A    between atoms: _539  and  _541
REMARK  219  A    between atoms: _541  and  _542
REMARK  220  A    between atoms: _541  and  _544
REMARK  221  A    between atoms: _544  and  _545
REMARK  222  A    between atoms: _545  and  _546
REMARK  223  A    between atoms: _546  and  _547
REMARK  224  A    between atoms: _556  and  _558
REMARK  225  A    between atoms: _558  and  _559
REMARK  226  A    between atoms: _558  and  _561
REMARK  227  A    between atoms: _561  and  _562
REMARK  228  A    between atoms: _562  and  _563
REMARK  229  A    between atoms: _563  and  _564
REMARK  230  A    between atoms: _573  and  _575
REMARK  231  A    between atoms: _575  and  _576
REMARK  232  A    between atoms: _575  and  _578
REMARK  233  A    between atoms: _578  and  _579
REMARK  234  A    between atoms: _581  and  _583
REMARK  235  A    between atoms: _583  and  _584
REMARK  236  A    between atoms: _583  and  _586
REMARK  237  A    between atoms: _586  and  _587
REMARK  238  A    between atoms: _587  and  _588
REMARK  239  A    between atoms: _593  and  _595
REMARK  240  A    between atoms: _595  and  _596
REMARK  241  A    between atoms: _595  and  _598
REMARK  242  A    between atoms: _598  and  _599
REMARK  243  A    between atoms: _601  and  _603
REMARK  244  A    between atoms: _603  and  _604
REMARK  245  A    between atoms: _603  and  _606
REMARK  246  A    between atoms: _606  and  _607
REMARK  247  A    between atoms: _610  and  _612
REMARK  248  A    between atoms: _612  and  _613
REMARK  249  A    between atoms: _612  and  _615
REMARK  250  A    between atoms: _615  and  _616
REMARK  251  A    between atoms: _619  and  _621
REMARK  252  A    between atoms: _621  and  _622
REMARK  253  A    between atoms: _621  and  _624
REMARK  254  A    between atoms: _627  and  _629
REMARK  255  A    between atoms: _629  and  _630
REMARK  256  A    between atoms: _632  and  _634
REMARK  257  A    between atoms: _634  and  _635
REMARK  258  A    between atoms: _638  and  _640
REMARK  259  A    between atoms: _640  and  _641
REMARK  260  A    between atoms: _640  and  _643
REMARK  261  A    between atoms: _646  and  _648
REMARK  262  A    between atoms: _648  and  _649
REMARK  263  A    between atoms: _648  and  _651
REMARK  264  A    between atoms: _651  and  _652
REMARK  265  A    between atoms: _652  and  _653
REMARK  266  A    between atoms: _655  and  _657
REMARK  267  A    between atoms: _657  and  _658
REMARK  268  A    between atoms: _657  and  _660
REMARK  269  A    between atoms: _660  and  _661
REMARK  270  A    between atoms: _661  and  _662
REMARK                            x       y       z     vdW  Elec       q    Type
REMARK                         _______ _______ _______ _____ _____    ______ ____
ROOT
ATOM      1  C   ILE A   2     -15.407  -2.539  37.473  0.00  0.00    +0.241 C 
ATOM      2  N   ALA A   3     -15.979  -3.178  38.483  0.00  0.00    -0.297 N 
ATOM      3  H   ALA A   3     -16.502  -2.637  39.201  0.00  0.00    +0.150 HD
ATOM      4  O   ILE A   2     -14.753  -3.120  36.612  0.00  0.00    -0.273 OA
ENDROOT
BRANCH   2   5
ATOM      5  CA  ALA A   3     -15.887  -4.624  38.604  0.00  0.00    +0.149 C 
ATOM      6  CB  ALA A   3     -16.265  -5.056  40.017  0.00  0.00    +0.031 C 
BRANCH   5   7
ATOM      7  C   ALA A   3     -16.876  -5.225  37.609  0.00  0.00    +0.241 C 
ATOM      8  O   ALA A   3     -17.874  -4.598  37.283  0.00  0.00    -0.273 OA
ATOM      9  N   ARG A   4     -16.579  -6.420  37.109  0.00  0.00    -0.298 N 
ATOM     10  H   ARG A   4     -15.674  -6.863  37.365  0.00  0.00    +0.150 HD
BRANCH   9  11
ATOM     11  CA  ARG A   4     -17.489  -7.133  36.207  0.00  0.00    +0.137 C 
BRANCH  11  12
ATOM     12  C   ARG A   4     -18.058  -8.292  37.041  0.00  0.00    +0.227 C 
ATOM     13  O   ARG A   4     -17.354  -8.856  37.879  0.00  0.00    -0.286 OA
ENDBRANCH  11  12
BRANCH  11  14
ATOM     14  CB  ARG A   4     -16.754  -7.711  34.983  0.00  0.00    +0.031 C 
BRANCH  14  15
ATOM     15  CG  ARG A   4     -16.109  -6.684  34.048  0.00  0.00    +0.045 C 
BRANCH  15  16
ATOM     16  CD  ARG A   4     -17.101  -5.632  33.563  0.00  0.00    +0.174 C 
BRANCH  16  17
ATOM     17  NE  ARG A   4     -16.504  -4.695  32.605  0.00  0.00    -0.265 N 
ATOM     18  HE  ARG A   4     -16.078  -3.825  32.982  0.00  0.00    +0.259 HD
ATOM     19  CZ  ARG A   4     -16.469  -4.880  31.285  0.00  0.00    +0.342 C 
ATOM     20  NH2 ARG A   4     -16.997  -5.963  30.743  0.00  0.00    -0.292 N 
ATOM     21 HH21 ARG A   4     -17.445  -6.681  31.347  0.00  0.00    +0.255 HD
ATOM     22 HH22 ARG A   4     -16.964  -6.097  29.712  0.00  0.00    +0.255 HD
ATOM     23  NH1 ARG A   4     -15.906  -3.970  30.498  0.00  0.00    -0.292 N 
ATOM     24 HH11 ARG A   4     -15.491  -3.110  30.911  0.00  0.00    +0.255 HD
ATOM     25 HH12 ARG A   4     -15.880  -4.117  29.469  0.00  0.00    +0.255 HD
ENDBRANCH  16  17
ENDBRANCH  15  16
ENDBRANCH  14  15
ENDBRANCH  11  14
ENDBRANCH   9  11
ENDBRANCH   5   7
ENDBRANCH   2   5
BRANCH   1  26
ATOM     26  CA  ILE A   2     -15.616  -1.027  37.428  0.00  0.00    +0.148 C 
BRANCH  26  28
ATOM     27  C   GLU A   1     -17.373  -0.048  38.764  0.00  0.00    +0.238 C 
ATOM     28  N   ILE A   2     -16.105  -0.441  38.675  0.00  0.00    -0.297 N 
ATOM     29  H   ILE A   2     -15.465  -0.332  39.488  0.00  0.00    +0.150 HD
ATOM     30  O   GLU A   1     -18.168  -0.163  37.829  0.00  0.00    -0.274 OA
BRANCH  27  31
ATOM     31  CA  GLU A   1     -17.829   0.567  40.082  0.00  0.00    +0.145 C 
BRANCH  31  32
ATOM     32  N   GLU A   1     -17.247  -0.056  41.254  0.00  0.00    -0.238 NA
ATOM     33  H   GLU A   1     -16.854   0.545  42.006  0.00  0.00    +0.142 HD
ENDBRANCH  31  32
BRANCH  31  34
ATOM     34  CB  GLU A   1     -17.509   2.055  40.088  0.00  0.00    +0.038 C 
BRANCH  34  35
ATOM     35  CG  GLU A   1     -17.690   2.686  38.746  0.00  0.00    +0.116 C 
BRANCH  35  36
ATOM     36  CD  GLU A   1     -18.839   3.631  38.725  0.00  0.00    +0.365 C 
ATOM     37  OE2 GLU A   1     -18.724   4.694  39.380  0.00  0.00    -0.246 OA
ATOM     38  OE1 GLU A   1     -19.855   3.307  38.059  0.00  0.00    -0.246 OA
ENDBRANCH  35  36
ENDBRANCH  34  35
ENDBRANCH  31  34
ENDBRANCH  27  31
ENDBRANCH  26  28
BRANCH  26  39
ATOM     39  CB  ILE A   2     -14.325  -0.333  36.956  0.00  0.00    +0.027 C 
ATOM     40  CG2 ILE A   2     -14.638   1.131  36.621  0.00  0.00    +0.002 C 
BRANCH  39  41
ATOM     41  CG1 ILE A   2     -13.245  -0.400  38.038  0.00  0.00    +0.002 C 
ATOM     42  CD1 ILE A   2     -11.903   0.212  37.593  0.00  0.00    +0.000 C 
ENDBRANCH  39  41
ENDBRANCH  26  39
ENDBRANCH   1  26
TORSDOF 17
REMARK  Name = ../refined-set-2016/2g94/2g94_pocket.pdb
REMARK  270 active torsions:
REMARK  status: ('A' for Active; 'I' for Inactive)
REMARK    1  A    between atoms: _1  and  _3
REMARK    2  A    between atoms: _3  and  _4
REMARK    3  A    between atoms: _3  and  _6
REMARK    4  A    between atoms: _6  and  _7
REMARK    5  A    between atoms: _7  and  _8
REMARK    6  A    between atoms: _8  and  _9
REMARK    7  A    between atoms: _9  and  _10
REMARK    8  A    between atoms: _14  and  _16
REMARK    9  A    between atoms: _16  and  _17
REMARK   10  A    between atoms: _16  and  _19
REMARK   11  A    between atoms: _19  and  _20
REMARK   12  A    between atoms: _22  and  _24
REMARK   13  A    between atoms: _24  and  _25
REMARK   14  A    between atoms: _27  and  _29
REMARK   15  A    between atoms: _29  and  _30
REMARK   16  A    between atoms: _29  and  _32
REMARK   17  A    between atoms: _32  and  _33
REMARK   18  A    between atoms: _33  and  _34
REMARK   19  A    between atoms: _39  and  _41
REMARK   20  A    between atoms: _41  and  _42
REMARK   21  A    between atoms: _44  and  _46
REMARK   22  A    between atoms: _46  and  _47
REMARK   23  A    between atoms: _46  and  _49
REMARK   24  A    between atoms: _49  and  _50
REMARK   25  A    between atoms: _55  and  _56
REMARK   26  A    between atoms: _58  and  _60
REMARK   27  A    between atoms: _60  and  _61
REMARK   28  A    between atoms: _60  and  _63
REMARK   29  A    between atoms: _63  and  _64
REMARK   30  A    between atoms: _69  and  _70
REMARK   31  A    between atoms: _72  and  _74
REMARK   32  A    between atoms: _74  and  _75
REMARK   33  A    between atoms: _74  and  _77
REMARK   34  A    between atoms: _77  and  _78
REMARK   35  A    between atoms: _81  and  _83
REMARK   36  A    between atoms: _83  and  _84
REMARK   37  A    between atoms: _83  and  _86
REMARK   38  A    between atoms: _89  and  _91
REMARK   39  A    between atoms: _91  and  _92
REMARK   40  A    between atoms: _91  and  _94
REMARK   41  A    between atoms: _94  and  _95
REMARK   42  A    between atoms: _98  and  _100
REMARK   43  A    between atoms: _100  and  _101
REMARK   44  A    between atoms: _100  and  _103
REMARK   45  A    between atoms: _103  and  _104
REMARK   46  A    between atoms: _107  and  _109
REMARK   47  A    between atoms: _109  and  _110
REMARK   48  A    between atoms: _112  and  _114
REMARK   49  A    between atoms: _114  and  _115
REMARK   50  A    between atoms: _114  and  _117
REMARK   51  A    between atoms: _117  and  _118
REMARK   52  A    between atoms: _120  and  _122
REMARK   53  A    between atoms: _122  and  _123
REMARK   54  A    between atoms: _122  and  _125
REMARK   55  A    between atoms: _125  and  _126
REMARK   56  A    between atoms: _128  and  _130
REMARK   57  A    between atoms: _130  and  _131
REMARK   58  A    between atoms: _130  and  _133
REMARK   59  A    between atoms: _133  and  _134
REMARK   60  A    between atoms: _139  and  _141
REMARK   61  A    between atoms: _141  and  _142
REMARK   62  A    between atoms: _141  and  _144
REMARK   63  A    between atoms: _144  and  _145
REMARK   64  A    between atoms: _150  and  _151
REMARK   65  A    between atoms: _153  and  _155
REMARK   66  A    between atoms: _155  and  _156
REMARK   67  A    between atoms: _155  and  _158
REMARK   68  A    between atoms: _162  and  _163
REMARK   69  A    between atoms: _168  and  _170
REMARK   70  A    between atoms: _170  and  _171
REMARK   71  A    between atoms: _170  and  _173
REMARK   72  A    between atoms: _173  and  _174
REMARK   73  A    between atoms: _179  and  _180
REMARK   74  A    between atoms: _182  and  _184
REMARK   75  A    between atoms: _184  and  _185
REMARK   76  A    between atoms: _184  and  _187
REMARK   77  A    between atoms: _187  and  _188
REMARK   78  A    between atoms: _191  and  _193
REMARK   79  A    between atoms: _193  and  _194
REMARK   80  A    between atoms: _193  and  _196
REMARK   81  A    between atoms: _196  and  _197
REMARK   82  A    between atoms: _197  and  _198
REMARK   83  A    between atoms: _203  and  _205
REMARK   84  A    between atoms: _205  and  _206
REMARK   85  A    between atoms: _208  and  _210
REMARK   86  A    between atoms: _210  and  _211
REMARK   87  A    between atoms: _210  and  _213
REMARK   88  A    between atoms: _213  and  _214
REMARK   89  A    between atoms: _214  and  _215
REMARK   90  A    between atoms: _215  and  _216
REMARK   91  A    between atoms: _216  and  _217
REMARK   92  A    between atoms: _221  and  _223
REMARK   93  A    between atoms: _223  and  _224
REMARK   94  A    between atoms: _223  and  _226
REMARK   95  A    between atoms: _226  and  _227
REMARK   96  A    between atoms: _237  and  _239
REMARK   97  A    between atoms: _239  and  _240
REMARK   98  A    between atoms: _239  and  _242
REMARK   99  A    between atoms: _242  and  _243
REMARK  100  A    between atoms: _246  and  _248
REMARK  101  A    between atoms: _248  and  _249
REMARK  102  A    between atoms: _248  and  _251
REMARK  103  A    between atoms: _251  and  _252
REMARK  104  A    between atoms: _252  and  _253
REMARK  105  A    between atoms: _253  and  _254
REMARK  106  A    between atoms: _254  and  _255
REMARK  107  A    between atoms: _259  and  _261
REMARK  108  A    between atoms: _261  and  _262
REMARK  109  A    between atoms: _261  and  _264
REMARK  110  A    between atoms: _264  and  _265
REMARK  111  A    between atoms: _271  and  _273
REMARK  112  A    between atoms: _273  and  _274
REMARK  113  A    between atoms: _273  and  _276
REMARK  114  A    between atoms: _276  and  _277
REMARK  115  A    between atoms: _283  and  _285
REMARK  116  A    between atoms: _285  and  _286
REMARK  117  A    between atoms: _285  and  _288
REMARK  118  A    between atoms: _288  and  _289
REMARK  119  A    between atoms: _292  and  _294
REMARK  120  A    between atoms: _294  and  _295
REMARK  121  A    between atoms: _294  and  _297
REMARK  122  A    between atoms: _297  and  _298
REMARK  123  A    between atoms: _300  and  _302
REMARK  124  A    between atoms: _302  and  _303
REMARK  125  A    between atoms: _302  and  _305
REMARK  126  A    between atoms: _305  and  _306
REMARK  127  A    between atoms: _316  and  _318
REMARK  128  A    between atoms: _318  and  _319
REMARK  129  A    between atoms: _321  and  _323
REMARK  130  A    between atoms: _323  and  _324
REMARK  131  A    between atoms: _323  and  _326
REMARK  132  A    between atoms: _326  and  _327
REMARK  133  A    between atoms: _330  and  _332
REMARK  134  A    between atoms: _332  and  _333
REMARK  135  A    between atoms: _332  and  _335
REMARK  136  A    between atoms: _335  and  _336
REMARK  137  A    between atoms: _339  and  _341
REMARK  138  A    between atoms: _341  and  _342
REMARK  139  A    between atoms: _341  and  _344
REMARK  140  A    between atoms: _344  and  _345
REMARK  141  A    between atoms: _348  and  _350
REMARK  142  A    between atoms: _350  and  _351
REMARK  143  A    between atoms: _354  and  _356
REMARK  144  A    between atoms: _356  and  _357
REMARK  145  A    between atoms: _356  and  _359
REMARK  146  A    between atoms: _359  and  _360
REMARK  147  A    between atoms: _365  and  _366
REMARK  148  A    between atoms: _368  and  _370
REMARK  149  A    between atoms: _370  and  _371
REMARK  150  A    between atoms: _370  and  _373
REMARK  151  A    between atoms: _373  and  _374
REMARK  152  A    between atoms: _374  and  _375
REMARK  153  A    between atoms: _378  and  _380
REMARK  154  A    between atoms: _380  and  _381
REMARK  155  A    between atoms: _380  and  _383
REMARK  156  A    between atoms: _383  and  _384
REMARK  157  A    between atoms: _387  and  _389
REMARK  158  A    between atoms: _389  and  _390
REMARK  159  A    between atoms: _393  and  _395
REMARK  160  A    between atoms: _395  and  _396
REMARK  161  A    between atoms: _395  and  _398
REMARK  162  A    between atoms: _398  and  _399
REMARK  163  A    between atoms: _399  and  _400
REMARK  164  A    between atoms: _400  and  _401
REMARK  165  A    between atoms: _410  and  _412
REMARK  166  A    between atoms: _412  and  _413
REMARK  167  A    between atoms: _412  and  _415
REMARK  168  A    between atoms: _415  and  _416
REMARK  169  A    between atoms: _419  and  _421
REMARK  170  A    between atoms: _421  and  _422
REMARK  171  A    between atoms: _421  and  _424
REMARK  172  A    between atoms: _424  and  _425
REMARK  173  A    between atoms: _435  and  _437
REMARK  174  A    between atoms: _437  and  _438
REMARK  175  A    between atoms: _437  and  _440
REMARK  176  A    between atoms: _440  and  _441
REMARK  177  A    between atoms: _446  and  _447
REMARK  178  A    between atoms: _449  and  _451
REMARK  179  A    between atoms: _451  and  _452
REMARK  180  A    between atoms: _451  and  _454
REMARK  181  A    between atoms: _454  and  _455
REMARK  182  A    between atoms: _455  and  _456
REMARK  183  A    between atoms: _456  and  _457
REMARK  184  A    between atoms: _457  and  _458
REMARK  185  A    between atoms: _462  and  _464
REMARK  186  A    between atoms: _464  and  _465
REMARK  187  A    between atoms: _464  and  _467
REMARK  188  A    between atoms: _467  and  _468
REMARK  189  A    between atoms: _471  and  _473
REMARK  190  A    between atoms: _473  and  _474
REMARK  191  A    between atoms: _473  and  _476
REMARK  192  A    between atoms: _479  and  _481
REMARK  193  A    between atoms: _481  and  _482
REMARK  194  A    between atoms: _481  and  _484
REMARK  195  A    between atoms: _484  and  _485
REMARK  196  A    between atoms: _488  and  _490
REMARK  197  A    between atoms: _490  and  _491
REMARK  198  A    between atoms: _490  and  _493
REMARK  199  A    between atoms: _493  and  _494
REMARK  200  A    between atoms: _496  and  _498
REMARK  201  A    between atoms: _498  and  _499
REMARK  202  A    between atoms: _501  and  _503
REMARK  203  A    between atoms: _503  and  _504
REMARK  204  A    between atoms: _503  and  _506
REMARK  205  A    between atoms: _506  and  _507
REMARK  206  A    between atoms: _510  and  _512
REMARK  207  A    between atoms: _512  and  _513
REMARK  208  A    between atoms: _512  and  _515
REMARK  209  A    between atoms: _515  and  _516
REMARK  210  A    between atoms: _519  and  _521
REMARK  211  A    between atoms: _521  and  _522
REMARK  212  A    between atoms: _521  and  _524
REMARK  213  A    between atoms: _524  and  _525
REMARK  214  A    between atoms: _530  and  _532
REMARK  215  A    between atoms: _532  and  _533
REMARK  216  A    between atoms: _532  and  _535
REMARK  217  A    between atoms: _535  and  _536
REMARK  218  A    between atoms: _539  and  _541
REMARK  219  A    between atoms: _541  and  _542
REMARK  220  A    between atoms: _541  and  _544
REMARK  221  A    between atoms: _544  and  _545
REMARK  222  A    between atoms: _545  and  _546
REMARK  223  A    between atoms: _546  and  _547
REMARK  224  A    between atoms: _556  and  _558
REMARK  225  A    between atoms: _558  and  _559
REMARK  226  A    between atoms: _558  and  _561
REMARK  227  A    between atoms: _561  and  _562
REMARK  228  A    between atoms: _562  and  _563
REMARK  229  A    between atoms: _563  and  _564
REMARK  230  A    between atoms: _573  and  _575
REMARK  231  A    between atoms: _575  and  _576
REMARK  232  A    between atoms: _575  and  _578
REMARK  233  A    between atoms: _578  and  _579
REMARK  234  A    between atoms: _581  and  _583
REMARK  235  A    between atoms: _583  and  _584
REMARK  236  A    between atoms: _583  and  _586
REMARK  237  A    between atoms: _586  and  _587
REMARK  238  A    between atoms: _587  and  _588
REMARK  239  A    between atoms: _593  and  _595
REMARK  240  A    between atoms: _595  and  _596
REMARK  241  A    between atoms: _595  and  _598
REMARK  242  A    between atoms: _598  and  _599
REMARK  243  A    between atoms: _601  and  _603
REMARK  244  A    between atoms: _603  and  _604
REMARK  245  A    between atoms: _603  and  _606
REMARK  246  A    between atoms: _606  and  _607
REMARK  247  A    between atoms: _610  and  _612
REMARK  248  A    between atoms: _612  and  _613
REMARK  249  A    between atoms: _612  and  _615
REMARK  250  A    between atoms: _615  and  _616
REMARK  251  A    between atoms: _619  and  _621
REMARK  252  A    between atoms: _621  and  _622
REMARK  253  A    between atoms: _621  and  _624
REMARK  254  A    between atoms: _627  and  _629
REMARK  255  A    between atoms: _629  and  _630
REMARK  256  A    between atoms: _632  and  _634
REMARK  257  A    between atoms: _634  and  _635
REMARK  258  A    between atoms: _638  and  _640
REMARK  259  A    between atoms: _640  and  _641
REMARK  260  A    between atoms: _640  and  _643
REMARK  261  A    between atoms: _646  and  _648
REMARK  262  A    between atoms: _648  and  _649
REMARK  263  A    between atoms: _648  and  _651
REMARK  264  A    between atoms: _651  and  _652
REMARK  265  A    between atoms: _652  and  _653
REMARK  266  A    between atoms: _655  and  _657
REMARK  267  A    between atoms: _657  and  _658
REMARK  268  A    between atoms: _657  and  _660
REMARK  269  A    between atoms: _660  and  _661
REMARK  270  A    between atoms: _661  and  _662
REMARK                            x       y       z     vdW  Elec       q    Type
REMARK                         _______ _______ _______ _____ _____    ______ ____
ROOT
ATOM      1  CA  LEU A   1       7.531  -1.019  42.408  0.00  0.00    +0.133 C 
ENDROOT
BRANCH   1   2
ATOM      2  N   LEU A   1       7.178  -0.108  43.495  0.00  0.00    -0.239 NA
ATOM      3  H   LEU A   1       6.904   0.868  43.263  0.00  0.00    +0.142 HD
ENDBRANCH   1   2
BRANCH   1   4
ATOM      4  C   LEU A   1       8.973  -0.660  42.066  0.00  0.00    +0.224 C 
ATOM      5  O   LEU A   1       9.284   0.510  41.826  0.00  0.00    -0.287 OA
ENDBRANCH   1   4
BRANCH   1   6
ATOM      6  CB  LEU A   1       6.615  -0.785  41.202  0.00  0.00    +0.025 C 
BRANCH   6   7
ATOM      7  CG  LEU A   1       5.110  -0.965  41.447  0.00  0.00    +0.002 C 
ATOM      8  CD2 LEU A   1       4.835  -2.304  42.112  0.00  0.00    +0.000 C 
ATOM      9  CD1 LEU A   1       4.368  -0.860  40.109  0.00  0.00    +0.000 C 
ENDBRANCH   6   7
ENDBRANCH   1   6
TORSDOF 4
REMARK  Name = ../refined-set-2016/2g94/2g94_pocket.pdb
REMARK  270 active torsions:
REMARK  status: ('A' for Active; 'I' for Inactive)
REMARK    1  A    between atoms: _1  and  _3
REMARK    2  A    between atoms: _3  and  _4
REMARK    3  A    between atoms: _3  and  _6
REMARK    4  A    between atoms: _6  and  _7
REMARK    5  A    between atoms: _7  and  _8
REMARK    6  A    between atoms: _8  and  _9
REMARK    7  A    between atoms: _9  and  _10
REMARK    8  A    between atoms: _14  and  _16
REMARK    9  A    between atoms: _16  and  _17
REMARK   10  A    between atoms: _16  and  _19
REMARK   11  A    between atoms: _19  and  _20
REMARK   12  A    between atoms: _22  and  _24
REMARK   13  A    between atoms: _24  and  _25
REMARK   14  A    between atoms: _27  and  _29
REMARK   15  A    between atoms: _29  and  _30
REMARK   16  A    between atoms: _29  and  _32
REMARK   17  A    between atoms: _32  and  _33
REMARK   18  A    between atoms: _33  and  _34
REMARK   19  A    between atoms: _39  and  _41
REMARK   20  A    between atoms: _41  and  _42
REMARK   21  A    between atoms: _44  and  _46
REMARK   22  A    between atoms: _46  and  _47
REMARK   23  A    between atoms: _46  and  _49
REMARK   24  A    between atoms: _49  and  _50
REMARK   25  A    between atoms: _55  and  _56
REMARK   26  A    between atoms: _58  and  _60
REMARK   27  A    between atoms: _60  and  _61
REMARK   28  A    between atoms: _60  and  _63
REMARK   29  A    between atoms: _63  and  _64
REMARK   30  A    between atoms: _69  and  _70
REMARK   31  A    between atoms: _72  and  _74
REMARK   32  A    between atoms: _74  and  _75
REMARK   33  A    between atoms: _74  and  _77
REMARK   34  A    between atoms: _77  and  _78
REMARK   35  A    between atoms: _81  and  _83
REMARK   36  A    between atoms: _83  and  _84
REMARK   37  A    between atoms: _83  and  _86
REMARK   38  A    between atoms: _89  and  _91
REMARK   39  A    between atoms: _91  and  _92
REMARK   40  A    between atoms: _91  and  _94
REMARK   41  A    between atoms: _94  and  _95
REMARK   42  A    between atoms: _98  and  _100
REMARK   43  A    between atoms: _100  and  _101
REMARK   44  A    between atoms: _100  and  _103
REMARK   45  A    between atoms: _103  and  _104
REMARK   46  A    between atoms: _107  and  _109
REMARK   47  A    between atoms: _109  and  _110
REMARK   48  A    between atoms: _112  and  _114
REMARK   49  A    between atoms: _114  and  _115
REMARK   50  A    between atoms: _114  and  _117
REMARK   51  A    between atoms: _117  and  _118
REMARK   52  A    between atoms: _120  and  _122
REMARK   53  A    between atoms: _122  and  _123
REMARK   54  A    between atoms: _122  and  _125
REMARK   55  A    between atoms: _125  and  _126
REMARK   56  A    between atoms: _128  and  _130
REMARK   57  A    between atoms: _130  and  _131
REMARK   58  A    between atoms: _130  and  _133
REMARK   59  A    between atoms: _133  and  _134
REMARK   60  A    between atoms: _139  and  _141
REMARK   61  A    between atoms: _141  and  _142
REMARK   62  A    between atoms: _141  and  _144
REMARK   63  A    between atoms: _144  and  _145
REMARK   64  A    between atoms: _150  and  _151
REMARK   65  A    between atoms: _153  and  _155
REMARK   66  A    between atoms: _155  and  _156
REMARK   67  A    between atoms: _155  and  _158
REMARK   68  A    between atoms: _162  and  _163
REMARK   69  A    between atoms: _168  and  _170
REMARK   70  A    between atoms: _170  and  _171
REMARK   71  A    between atoms: _170  and  _173
REMARK   72  A    between atoms: _173  and  _174
REMARK   73  A    between atoms: _179  and  _180
REMARK   74  A    between atoms: _182  and  _184
REMARK   75  A    between atoms: _184  and  _185
REMARK   76  A    between atoms: _184  and  _187
REMARK   77  A    between atoms: _187  and  _188
REMARK   78  A    between atoms: _191  and  _193
REMARK   79  A    between atoms: _193  and  _194
REMARK   80  A    between atoms: _193  and  _196
REMARK   81  A    between atoms: _196  and  _197
REMARK   82  A    between atoms: _197  and  _198
REMARK   83  A    between atoms: _203  and  _205
REMARK   84  A    between atoms: _205  and  _206
REMARK   85  A    between atoms: _208  and  _210
REMARK   86  A    between atoms: _210  and  _211
REMARK   87  A    between atoms: _210  and  _213
REMARK   88  A    between atoms: _213  and  _214
REMARK   89  A    between atoms: _214  and  _215
REMARK   90  A    between atoms: _215  and  _216
REMARK   91  A    between atoms: _216  and  _217
REMARK   92  A    between atoms: _221  and  _223
REMARK   93  A    between atoms: _223  and  _224
REMARK   94  A    between atoms: _223  and  _226
REMARK   95  A    between atoms: _226  and  _227
REMARK   96  A    between atoms: _237  and  _239
REMARK   97  A    between atoms: _239  and  _240
REMARK   98  A    between atoms: _239  and  _242
REMARK   99  A    between atoms: _242  and  _243
REMARK  100  A    between atoms: _246  and  _248
REMARK  101  A    between atoms: _248  and  _249
REMARK  102  A    between atoms: _248  and  _251
REMARK  103  A    between atoms: _251  and  _252
REMARK  104  A    between atoms: _252  and  _253
REMARK  105  A    between atoms: _253  and  _254
REMARK  106  A    between atoms: _254  and  _255
REMARK  107  A    between atoms: _259  and  _261
REMARK  108  A    between atoms: _261  and  _262
REMARK  109  A    between atoms: _261  and  _264
REMARK  110  A    between atoms: _264  and  _265
REMARK  111  A    between atoms: _271  and  _273
REMARK  112  A    between atoms: _273  and  _274
REMARK  113  A    between atoms: _273  and  _276
REMARK  114  A    between atoms: _276  and  _277
REMARK  115  A    between atoms: _283  and  _285
REMARK  116  A    between atoms: _285  and  _286
REMARK  117  A    between atoms: _285  and  _288
REMARK  118  A    between atoms: _288  and  _289
REMARK  119  A    between atoms: _292  and  _294
REMARK  120  A    between atoms: _294  and  _295
REMARK  121  A    between atoms: _294  and  _297
REMARK  122  A    between atoms: _297  and  _298
REMARK  123  A    between atoms: _300  and  _302
REMARK  124  A    between atoms: _302  and  _303
REMARK  125  A    between atoms: _302  and  _305
REMARK  126  A    between atoms: _305  and  _306
REMARK  127  A    between atoms: _316  and  _318
REMARK  128  A    between atoms: _318  and  _319
REMARK  129  A    between atoms: _321  and  _323
REMARK  130  A    between atoms: _323  and  _324
REMARK  131  A    between atoms: _323  and  _326
REMARK  132  A    between atoms: _326  and  _327
REMARK  133  A    between atoms: _330  and  _332
REMARK  134  A    between atoms: _332  and  _333
REMARK  135  A    between atoms: _332  and  _335
REMARK  136  A    between atoms: _335  and  _336
REMARK  137  A    between atoms: _339  and  _341
REMARK  138  A    between atoms: _341  and  _342
REMARK  139  A    between atoms: _341  and  _344
REMARK  140  A    between atoms: _344  and  _345
REMARK  141  A    between atoms: _348  and  _350
REMARK  142  A    between atoms: _350  and  _351
REMARK  143  A    between atoms: _354  and  _356
REMARK  144  A    between atoms: _356  and  _357
REMARK  145  A    between atoms: _356  and  _359
REMARK  146  A    between atoms: _359  and  _360
REMARK  147  A    between atoms: _365  and  _366
REMARK  148  A    between atoms: _368  and  _370
REMARK  149  A    between atoms: _370  and  _371
REMARK  150  A    between atoms: _370  and  _373
REMARK  151  A    between atoms: _373  and  _374
REMARK  152  A    between atoms: _374  and  _375
REMARK  153  A    between atoms: _378  and  _380
REMARK  154  A    between atoms: _380  and  _381
REMARK  155  A    between atoms: _380  and  _383
REMARK  156  A    between atoms: _383  and  _384
REMARK  157  A    between atoms: _387  and  _389
REMARK  158  A    between atoms: _389  and  _390
REMARK  159  A    between atoms: _393  and  _395
REMARK  160  A    between atoms: _395  and  _396
REMARK  161  A    between atoms: _395  and  _398
REMARK  162  A    between atoms: _398  and  _399
REMARK  163  A    between atoms: _399  and  _400
REMARK  164  A    between atoms: _400  and  _401
REMARK  165  A    between atoms: _410  and  _412
REMARK  166  A    between atoms: _412  and  _413
REMARK  167  A    between atoms: _412  and  _415
REMARK  168  A    between atoms: _415  and  _416
REMARK  169  A    between atoms: _419  and  _421
REMARK  170  A    between atoms: _421  and  _422
REMARK  171  A    between atoms: _421  and  _424
REMARK  172  A    between atoms: _424  and  _425
REMARK  173  A    between atoms: _435  and  _437
REMARK  174  A    between atoms: _437  and  _438
REMARK  175  A    between atoms: _437  and  _440
REMARK  176  A    between atoms: _440  and  _441
REMARK  177  A    between atoms: _446  and  _447
REMARK  178  A    between atoms: _449  and  _451
REMARK  179  A    between atoms: _451  and  _452
REMARK  180  A    between atoms: _451  and  _454
REMARK  181  A    between atoms: _454  and  _455
REMARK  182  A    between atoms: _455  and  _456
REMARK  183  A    between atoms: _456  and  _457
REMARK  184  A    between atoms: _457  and  _458
REMARK  185  A    between atoms: _462  and  _464
REMARK  186  A    between atoms: _464  and  _465
REMARK  187  A    between atoms: _464  and  _467
REMARK  188  A    between atoms: _467  and  _468
REMARK  189  A    between atoms: _471  and  _473
REMARK  190  A    between atoms: _473  and  _474
REMARK  191  A    between atoms: _473  and  _476
REMARK  192  A    between atoms: _479  and  _481
REMARK  193  A    between atoms: _481  and  _482
REMARK  194  A    between atoms: _481  and  _484
REMARK  195  A    between atoms: _484  and  _485
REMARK  196  A    between atoms: _488  and  _490
REMARK  197  A    between atoms: _490  and  _491
REMARK  198  A    between atoms: _490  and  _493
REMARK  199  A    between atoms: _493  and  _494
REMARK  200  A    between atoms: _496  and  _498
REMARK  201  A    between atoms: _498  and  _499
REMARK  202  A    between atoms: _501  and  _503
REMARK  203  A    between atoms: _503  and  _504
REMARK  204  A    between atoms: _503  and  _506
REMARK  205  A    between atoms: _506  and  _507
REMARK  206  A    between atoms: _510  and  _512
REMARK  207  A    between atoms: _512  and  _513
REMARK  208  A    between atoms: _512  and  _515
REMARK  209  A    between atoms: _515  and  _516
REMARK  210  A    between atoms: _519  and  _521
REMARK  211  A    between atoms: _521  and  _522
REMARK  212  A    between atoms: _521  and  _524
REMARK  213  A    between atoms: _524  and  _525
REMARK  214  A    between atoms: _530  and  _532
REMARK  215  A    between atoms: _532  and  _533
REMARK  216  A    between atoms: _532  and  _535
REMARK  217  A    between atoms: _535  and  _536
REMARK  218  A    between atoms: _539  and  _541
REMARK  219  A    between atoms: _541  and  _542
REMARK  220  A    between atoms: _541  and  _544
REMARK  221  A    between atoms: _544  and  _545
REMARK  222  A    between atoms: _545  and  _546
REMARK  223  A    between atoms: _546  and  _547
REMARK  224  A    between atoms: _556  and  _558
REMARK  225  A    between atoms: _558  and  _559
REMARK  226  A    between atoms: _558  and  _561
REMARK  227  A    between atoms: _561  and  _562
REMARK  228  A    between atoms: _562  and  _563
REMARK  229  A    between atoms: _563  and  _564
REMARK  230  A    between atoms: _573  and  _575
REMARK  231  A    between atoms: _575  and  _576
REMARK  232  A    between atoms: _575  and  _578
REMARK  233  A    between atoms: _578  and  _579
REMARK  234  A    between atoms: _581  and  _583
REMARK  235  A    between atoms: _583  and  _584
REMARK  236  A    between atoms: _583  and  _586
REMARK  237  A    between atoms: _586  and  _587
REMARK  238  A    between atoms: _587  and  _588
REMARK  239  A    between atoms: _593  and  _595
REMARK  240  A    between atoms: _595  and  _596
REMARK  241  A    between atoms: _595  and  _598
REMARK  242  A    between atoms: _598  and  _599
REMARK  243  A    between atoms: _601  and  _603
REMARK  244  A    between atoms: _603  and  _604
REMARK  245  A    between atoms: _603  and  _606
REMARK  246  A    between atoms: _606  and  _607
REMARK  247  A    between atoms: _610  and  _612
REMARK  248  A    between atoms: _612  and  _613
REMARK  249  A    between atoms: _612  and  _615
REMARK  250  A    between atoms: _615  and  _616
REMARK  251  A    between atoms: _619  and  _621
REMARK  252  A    between atoms: _621  and  _622
REMARK  253  A    between atoms: _621  and  _624
REMARK  254  A    between atoms: _627  and  _629
REMARK  255  A    between atoms: _629  and  _630
REMARK  256  A    between atoms: _632  and  _634
REMARK  257  A    between atoms: _634  and  _635
REMARK  258  A    between atoms: _638  and  _640
REMARK  259  A    between atoms: _640  and  _641
REMARK  260  A    between atoms: _640  and  _643
REMARK  261  A    between atoms: _646  and  _648
REMARK  262  A    between atoms: _648  and  _649
REMARK  263  A    between atoms: _648  and  _651
REMARK  264  A    between atoms: _651  and  _652
REMARK  265  A    between atoms: _652  and  _653
REMARK  266  A    between atoms: _655  and  _657
REMARK  267  A    between atoms: _657  and  _658
REMARK  268  A    between atoms: _657  and  _660
REMARK  269  A    between atoms: _660  and  _661
REMARK  270  A    between atoms: _661  and  _662
REMARK                            x       y       z     vdW  Elec       q    Type
REMARK                         _______ _______ _______ _____ _____    ______ ____
ROOT
ATOM      1  C   TRP A   1     -12.525   3.258  39.672  0.00  0.00    +0.239 C 
ATOM      2  O   TRP A   1     -12.090   2.274  40.299  0.00  0.00    -0.274 OA
ATOM      3  N   TYR A   2     -11.813   3.892  38.743  0.00  0.00    -0.298 N 
ATOM      4  H   TYR A   2     -12.261   4.629  38.161  0.00  0.00    +0.150 HD
ENDROOT
BRANCH   1   5
ATOM      5  CA  TRP A   1     -13.924   3.775  39.994  0.00  0.00    +0.149 C 
BRANCH   5   6
ATOM      6  N   TRP A   1     -13.593   4.800  40.981  0.00  0.00    -0.238 NA
ATOM      7  H   TRP A   1     -12.734   5.371  40.848  0.00  0.00    +0.142 HD
ENDBRANCH   5   6
BRANCH   5   8
ATOM      8  CB  TRP A   1     -14.736   4.366  38.814  0.00  0.00    +0.054 C 
BRANCH   8   9
ATOM      9  CG  TRP A   1     -14.155   5.452  37.962  0.00  0.00    -0.002 A 
ATOM     10  CD1 TRP A   1     -13.402   6.528  38.360  0.00  0.00    +0.068 A 
ATOM     11  NE1 TRP A   1     -13.138   7.346  37.278  0.00  0.00    -0.352 N 
ATOM     12  HE1 TRP A   1     -12.587   8.228  37.306  0.00  0.00    +0.166 HD
ATOM     13  CE2 TRP A   1     -13.722   6.805  36.160  0.00  0.00    +0.056 A 
ATOM     14  CZ2 TRP A   1     -13.733   7.263  34.832  0.00  0.00    +0.017 A 
ATOM     15  CH2 TRP A   1     -14.407   6.506  33.901  0.00  0.00    +0.001 A 
ATOM     16  CZ3 TRP A   1     -15.069   5.313  34.262  0.00  0.00    +0.000 A 
ATOM     17  CE3 TRP A   1     -15.058   4.857  35.589  0.00  0.00    +0.001 A 
ATOM     18  CD2 TRP A   1     -14.373   5.612  36.556  0.00  0.00    +0.013 A 
ENDBRANCH   8   9
ENDBRANCH   5   8
ENDBRANCH   1   5
BRANCH   3  19
ATOM     19  CA  TYR A   2     -10.399   3.557  38.535  0.00  0.00    +0.141 C 
BRANCH  19  20
ATOM     20  C   TYR A   2      -9.792   4.476  39.606  0.00  0.00    +0.227 C 
ATOM     21  O   TYR A   2     -10.532   5.206  40.265  0.00  0.00    -0.286 OA
ENDBRANCH  19  20
BRANCH  19  22
ATOM     22  CB  TYR A   2      -9.877   4.065  37.189  0.00  0.00    +0.054 C 
BRANCH  22  23
ATOM     23  CG  TYR A   2     -10.390   3.309  36.000  0.00  0.00    -0.020 A 
ATOM     24  CD2 TYR A   2      -9.768   2.136  35.577  0.00  0.00    -0.001 A 
ATOM     25  CE2 TYR A   2     -10.273   1.400  34.504  0.00  0.00    +0.036 A 
ATOM     26  CZ  TYR A   2     -11.407   1.852  33.849  0.00  0.00    +0.134 A 
ATOM     27  CE1 TYR A   2     -12.038   3.018  34.250  0.00  0.00    +0.036 A 
ATOM     28  CD1 TYR A   2     -11.527   3.740  35.322  0.00  0.00    -0.001 A 
BRANCH  26  29
ATOM     29  OH  TYR A   2     -11.908   1.144  32.786  0.00  0.00    -0.506 OA
ATOM     30  HH  TYR A   2     -11.346   0.344  32.630  0.00  0.00    +0.292 HD
ENDBRANCH  26  29
ENDBRANCH  22  23
ENDBRANCH  19  22
ENDBRANCH   3  19
TORSDOF 9
REMARK  Name = ../refined-set-2016/2g94/2g94_pocket.pdb
REMARK  270 active torsions:
REMARK  status: ('A' for Active; 'I' for Inactive)
REMARK    1  A    between atoms: _1  and  _3
REMARK    2  A    between atoms: _3  and  _4
REMARK    3  A    between atoms: _3  and  _6
REMARK    4  A    between atoms: _6  and  _7
REMARK    5  A    between atoms: _7  and  _8
REMARK    6  A    between atoms: _8  and  _9
REMARK    7  A    between atoms: _9  and  _10
REMARK    8  A    between atoms: _14  and  _16
REMARK    9  A    between atoms: _16  and  _17
REMARK   10  A    between atoms: _16  and  _19
REMARK   11  A    between atoms: _19  and  _20
REMARK   12  A    between atoms: _22  and  _24
REMARK   13  A    between atoms: _24  and  _25
REMARK   14  A    between atoms: _27  and  _29
REMARK   15  A    between atoms: _29  and  _30
REMARK   16  A    between atoms: _29  and  _32
REMARK   17  A    between atoms: _32  and  _33
REMARK   18  A    between atoms: _33  and  _34
REMARK   19  A    between atoms: _39  and  _41
REMARK   20  A    between atoms: _41  and  _42
REMARK   21  A    between atoms: _44  and  _46
REMARK   22  A    between atoms: _46  and  _47
REMARK   23  A    between atoms: _46  and  _49
REMARK   24  A    between atoms: _49  and  _50
REMARK   25  A    between atoms: _55  and  _56
REMARK   26  A    between atoms: _58  and  _60
REMARK   27  A    between atoms: _60  and  _61
REMARK   28  A    between atoms: _60  and  _63
REMARK   29  A    between atoms: _63  and  _64
REMARK   30  A    between atoms: _69  and  _70
REMARK   31  A    between atoms: _72  and  _74
REMARK   32  A    between atoms: _74  and  _75
REMARK   33  A    between atoms: _74  and  _77
REMARK   34  A    between atoms: _77  and  _78
REMARK   35  A    between atoms: _81  and  _83
REMARK   36  A    between atoms: _83  and  _84
REMARK   37  A    between atoms: _83  and  _86
REMARK   38  A    between atoms: _89  and  _91
REMARK   39  A    between atoms: _91  and  _92
REMARK   40  A    between atoms: _91  and  _94
REMARK   41  A    between atoms: _94  and  _95
REMARK   42  A    between atoms: _98  and  _100
REMARK   43  A    between atoms: _100  and  _101
REMARK   44  A    between atoms: _100  and  _103
REMARK   45  A    between atoms: _103  and  _104
REMARK   46  A    between atoms: _107  and  _109
REMARK   47  A    between atoms: _109  and  _110
REMARK   48  A    between atoms: _112  and  _114
REMARK   49  A    between atoms: _114  and  _115
REMARK   50  A    between atoms: _114  and  _117
REMARK   51  A    between atoms: _117  and  _118
REMARK   52  A    between atoms: _120  and  _122
REMARK   53  A    between atoms: _122  and  _123
REMARK   54  A    between atoms: _122  and  _125
REMARK   55  A    between atoms: _125  and  _126
REMARK   56  A    between atoms: _128  and  _130
REMARK   57  A    between atoms: _130  and  _131
REMARK   58  A    between atoms: _130  and  _133
REMARK   59  A    between atoms: _133  and  _134
REMARK   60  A    between atoms: _139  and  _141
REMARK   61  A    between atoms: _141  and  _142
REMARK   62  A    between atoms: _141  and  _144
REMARK   63  A    between atoms: _144  and  _145
REMARK   64  A    between atoms: _150  and  _151
REMARK   65  A    between atoms: _153  and  _155
REMARK   66  A    between atoms: _155  and  _156
REMARK   67  A    between atoms: _155  and  _158
REMARK   68  A    between atoms: _162  and  _163
REMARK   69  A    between atoms: _168  and  _170
REMARK   70  A    between atoms: _170  and  _171
REMARK   71  A    between atoms: _170  and  _173
REMARK   72  A    between atoms: _173  and  _174
REMARK   73  A    between atoms: _179  and  _180
REMARK   74  A    between atoms: _182  and  _184
REMARK   75  A    between atoms: _184  and  _185
REMARK   76  A    between atoms: _184  and  _187
REMARK   77  A    between atoms: _187  and  _188
REMARK   78  A    between atoms: _191  and  _193
REMARK   79  A    between atoms: _193  and  _194
REMARK   80  A    between atoms: _193  and  _196
REMARK   81  A    between atoms: _196  and  _197
REMARK   82  A    between atoms: _197  and  _198
REMARK   83  A    between atoms: _203  and  _205
REMARK   84  A    between atoms: _205  and  _206
REMARK   85  A    between atoms: _208  and  _210
REMARK   86  A    between atoms: _210  and  _211
REMARK   87  A    between atoms: _210  and  _213
REMARK   88  A    between atoms: _213  and  _214
REMARK   89  A    between atoms: _214  and  _215
REMARK   90  A    between atoms: _215  and  _216
REMARK   91  A    between atoms: _216  and  _217
REMARK   92  A    between atoms: _221  and  _223
REMARK   93  A    between atoms: _223  and  _224
REMARK   94  A    between atoms: _223  and  _226
REMARK   95  A    between atoms: _226  and  _227
REMARK   96  A    between atoms: _237  and  _239
REMARK   97  A    between atoms: _239  and  _240
REMARK   98  A    between atoms: _239  and  _242
REMARK   99  A    between atoms: _242  and  _243
REMARK  100  A    between atoms: _246  and  _248
REMARK  101  A    between atoms: _248  and  _249
REMARK  102  A    between atoms: _248  and  _251
REMARK  103  A    between atoms: _251  and  _252
REMARK  104  A    between atoms: _252  and  _253
REMARK  105  A    between atoms: _253  and  _254
REMARK  106  A    between atoms: _254  and  _255
REMARK  107  A    between atoms: _259  and  _261
REMARK  108  A    between atoms: _261  and  _262
REMARK  109  A    between atoms: _261  and  _264
REMARK  110  A    between atoms: _264  and  _265
REMARK  111  A    between atoms: _271  and  _273
REMARK  112  A    between atoms: _273  and  _274
REMARK  113  A    between atoms: _273  and  _276
REMARK  114  A    between atoms: _276  and  _277
REMARK  115  A    between atoms: _283  and  _285
REMARK  116  A    between atoms: _285  and  _286
REMARK  117  A    between atoms: _285  and  _288
REMARK  118  A    between atoms: _288  and  _289
REMARK  119  A    between atoms: _292  and  _294
REMARK  120  A    between atoms: _294  and  _295
REMARK  121  A    between atoms: _294  and  _297
REMARK  122  A    between atoms: _297  and  _298
REMARK  123  A    between atoms: _300  and  _302
REMARK  124  A    between atoms: _302  and  _303
REMARK  125  A    between atoms: _302  and  _305
REMARK  126  A    between atoms: _305  and  _306
REMARK  127  A    between atoms: _316  and  _318
REMARK  128  A    between atoms: _318  and  _319
REMARK  129  A    between atoms: _321  and  _323
REMARK  130  A    between atoms: _323  and  _324
REMARK  131  A    between atoms: _323  and  _326
REMARK  132  A    between atoms: _326  and  _327
REMARK  133  A    between atoms: _330  and  _332
REMARK  134  A    between atoms: _332  and  _333
REMARK  135  A    between atoms: _332  and  _335
REMARK  136  A    between atoms: _335  and  _336
REMARK  137  A    between atoms: _339  and  _341
REMARK  138  A    between atoms: _341  and  _342
REMARK  139  A    between atoms: _341  and  _344
REMARK  140  A    between atoms: _344  and  _345
REMARK  141  A    between atoms: _348  and  _350
REMARK  142  A    between atoms: _350  and  _351
REMARK  143  A    between atoms: _354  and  _356
REMARK  144  A    between atoms: _356  and  _357
REMARK  145  A    between atoms: _356  and  _359
REMARK  146  A    between atoms: _359  and  _360
REMARK  147  A    between atoms: _365  and  _366
REMARK  148  A    between atoms: _368  and  _370
REMARK  149  A    between atoms: _370  and  _371
REMARK  150  A    between atoms: _370  and  _373
REMARK  151  A    between atoms: _373  and  _374
REMARK  152  A    between atoms: _374  and  _375
REMARK  153  A    between atoms: _378  and  _380
REMARK  154  A    between atoms: _380  and  _381
REMARK  155  A    between atoms: _380  and  _383
REMARK  156  A    between atoms: _383  and  _384
REMARK  157  A    between atoms: _387  and  _389
REMARK  158  A    between atoms: _389  and  _390
REMARK  159  A    between atoms: _393  and  _395
REMARK  160  A    between atoms: _395  and  _396
REMARK  161  A    between atoms: _395  and  _398
REMARK  162  A    between atoms: _398  and  _399
REMARK  163  A    between atoms: _399  and  _400
REMARK  164  A    between atoms: _400  and  _401
REMARK  165  A    between atoms: _410  and  _412
REMARK  166  A    between atoms: _412  and  _413
REMARK  167  A    between atoms: _412  and  _415
REMARK  168  A    between atoms: _415  and  _416
REMARK  169  A    between atoms: _419  and  _421
REMARK  170  A    between atoms: _421  and  _422
REMARK  171  A    between atoms: _421  and  _424
REMARK  172  A    between atoms: _424  and  _425
REMARK  173  A    between atoms: _435  and  _437
REMARK  174  A    between atoms: _437  and  _438
REMARK  175  A    between atoms: _437  and  _440
REMARK  176  A    between atoms: _440  and  _441
REMARK  177  A    between atoms: _446  and  _447
REMARK  178  A    between atoms: _449  and  _451
REMARK  179  A    between atoms: _451  and  _452
REMARK  180  A    between atoms: _451  and  _454
REMARK  181  A    between atoms: _454  and  _455
REMARK  182  A    between atoms: _455  and  _456
REMARK  183  A    between atoms: _456  and  _457
REMARK  184  A    between atoms: _457  and  _458
REMARK  185  A    between atoms: _462  and  _464
REMARK  186  A    between atoms: _464  and  _465
REMARK  187  A    between atoms: _464  and  _467
REMARK  188  A    between atoms: _467  and  _468
REMARK  189  A    between atoms: _471  and  _473
REMARK  190  A    between atoms: _473  and  _474
REMARK  191  A    between atoms: _473  and  _476
REMARK  192  A    between atoms: _479  and  _481
REMARK  193  A    between atoms: _481  and  _482
REMARK  194  A    between atoms: _481  and  _484
REMARK  195  A    between atoms: _484  and  _485
REMARK  196  A    between atoms: _488  and  _490
REMARK  197  A    between atoms: _490  and  _491
REMARK  198  A    between atoms: _490  and  _493
REMARK  199  A    between atoms: _493  and  _494
REMARK  200  A    between atoms: _496  and  _498
REMARK  201  A    between atoms: _498  and  _499
REMARK  202  A    between atoms: _501  and  _503
REMARK  203  A    between atoms: _503  and  _504
REMARK  204  A    between atoms: _503  and  _506
REMARK  205  A    between atoms: _506  and  _507
REMARK  206  A    between atoms: _510  and  _512
REMARK  207  A    between atoms: _512  and  _513
REMARK  208  A    between atoms: _512  and  _515
REMARK  209  A    between atoms: _515  and  _516
REMARK  210  A    between atoms: _519  and  _521
REMARK  211  A    between atoms: _521  and  _522
REMARK  212  A    between atoms: _521  and  _524
REMARK  213  A    between atoms: _524  and  _525
REMARK  214  A    between atoms: _530  and  _532
REMARK  215  A    between atoms: _532  and  _533
REMARK  216  A    between atoms: _532  and  _535
REMARK  217  A    between atoms: _535  and  _536
REMARK  218  A    between atoms: _539  and  _541
REMARK  219  A    between atoms: _541  and  _542
REMARK  220  A    between atoms: _541  and  _544
REMARK  221  A    between atoms: _544  and  _545
REMARK  222  A    between atoms: _545  and  _546
REMARK  223  A    between atoms: _546  and  _547
REMARK  224  A    between atoms: _556  and  _558
REMARK  225  A    between atoms: _558  and  _559
REMARK  226  A    between atoms: _558  and  _561
REMARK  227  A    between atoms: _561  and  _562
REMARK  228  A    between atoms: _562  and  _563
REMARK  229  A    between atoms: _563  and  _564
REMARK  230  A    between atoms: _573  and  _575
REMARK  231  A    between atoms: _575  and  _576
REMARK  232  A    between atoms: _575  and  _578
REMARK  233  A    between atoms: _578  and  _579
REMARK  234  A    between atoms: _581  and  _583
REMARK  235  A    between atoms: _583  and  _584
REMARK  236  A    between atoms: _583  and  _586
REMARK  237  A    between atoms: _586  and  _587
REMARK  238  A    between atoms: _587  and  _588
REMARK  239  A    between atoms: _593  and  _595
REMARK  240  A    between atoms: _595  and  _596
REMARK  241  A    between atoms: _595  and  _598
REMARK  242  A    between atoms: _598  and  _599
REMARK  243  A    between atoms: _601  and  _603
REMARK  244  A    between atoms: _603  and  _604
REMARK  245  A    between atoms: _603  and  _606
REMARK  246  A    between atoms: _606  and  _607
REMARK  247  A    between atoms: _610  and  _612
REMARK  248  A    between atoms: _612  and  _613
REMARK  249  A    between atoms: _612  and  _615
REMARK  250  A    between atoms: _615  and  _616
REMARK  251  A    between atoms: _619  and  _621
REMARK  252  A    between atoms: _621  and  _622
REMARK  253  A    between atoms: _621  and  _624
REMARK  254  A    between atoms: _627  and  _629
REMARK  255  A    between atoms: _629  and  _630
REMARK  256  A    between atoms: _632  and  _634
REMARK  257  A    between atoms: _634  and  _635
REMARK  258  A    between atoms: _638  and  _640
REMARK  259  A    between atoms: _640  and  _641
REMARK  260  A    between atoms: _640  and  _643
REMARK  261  A    between atoms: _646  and  _648
REMARK  262  A    between atoms: _648  and  _649
REMARK  263  A    between atoms: _648  and  _651
REMARK  264  A    between atoms: _651  and  _652
REMARK  265  A    between atoms: _652  and  _653
REMARK  266  A    between atoms: _655  and  _657
REMARK  267  A    between atoms: _657  and  _658
REMARK  268  A    between atoms: _657  and  _660
REMARK  269  A    between atoms: _660  and  _661
REMARK  270  A    between atoms: _661  and  _662
REMARK                            x       y       z     vdW  Elec       q    Type
REMARK                         _______ _______ _______ _____ _____    ______ ____
ROOT
ATOM      1  CG  LYS A   1      -9.800   7.733  32.128  0.00  0.00    -0.000 C 
ENDROOT
BRANCH   1   2
ATOM      2  CB  LYS A   1     -10.217   9.050  32.761  0.00  0.00    +0.025 C 
BRANCH   2   3
ATOM      3  CA  LYS A   1      -9.490  10.261  32.171  0.00  0.00    +0.133 C 
BRANCH   3   4
ATOM      4  N   LYS A   1      -9.858  10.425  30.761  0.00  0.00    -0.239 NA
ATOM      5  H   LYS A   1      -9.130  10.311  30.027  0.00  0.00    +0.142 HD
ENDBRANCH   3   4
BRANCH   3   6
ATOM      6  C   LYS A   1      -7.988  10.039  32.351  0.00  0.00    +0.224 C 
ATOM      7  O   LYS A   1      -7.281   9.819  31.389  0.00  0.00    -0.287 OA
ENDBRANCH   3   6
ENDBRANCH   2   3
ENDBRANCH   1   2
BRANCH   1   8
ATOM      8  CD  LYS A   1     -10.537   6.561  32.757  0.00  0.00    -0.024 C 
BRANCH   8   9
ATOM      9  CE  LYS A   1     -10.547   5.386  31.822  0.00  0.00    -0.086 C 
BRANCH   9  10
ATOM     10  NZ  LYS A   1     -11.242   5.692  30.517  0.00  0.00    +0.380 N 
ATOM     11  HZ1 LYS A   1     -12.229   5.960  30.706  0.00  0.00    -0.089 HD
ATOM     12  HZ2 LYS A   1     -10.753   6.477  30.041  0.00  0.00    -0.089 HD
ATOM     13  HZ3 LYS A   1     -11.221   4.849  29.908  0.00  0.00    -0.089 HD
ENDBRANCH   9  10
ENDBRANCH   8   9
ENDBRANCH   1   8
TORSDOF 7
REMARK  Name = ../refined-set-2016/2g94/2g94_pocket.pdb
REMARK  270 active torsions:
REMARK  status: ('A' for Active; 'I' for Inactive)
REMARK    1  A    between atoms: _1  and  _3
REMARK    2  A    between atoms: _3  and  _4
REMARK    3  A    between atoms: _3  and  _6
REMARK    4  A    between atoms: _6  and  _7
REMARK    5  A    between atoms: _7  and  _8
REMARK    6  A    between atoms: _8  and  _9
REMARK    7  A    between atoms: _9  and  _10
REMARK    8  A    between atoms: _14  and  _16
REMARK    9  A    between atoms: _16  and  _17
REMARK   10  A    between atoms: _16  and  _19
REMARK   11  A    between atoms: _19  and  _20
REMARK   12  A    between atoms: _22  and  _24
REMARK   13  A    between atoms: _24  and  _25
REMARK   14  A    between atoms: _27  and  _29
REMARK   15  A    between atoms: _29  and  _30
REMARK   16  A    between atoms: _29  and  _32
REMARK   17  A    between atoms: _32  and  _33
REMARK   18  A    between atoms: _33  and  _34
REMARK   19  A    between atoms: _39  and  _41
REMARK   20  A    between atoms: _41  and  _42
REMARK   21  A    between atoms: _44  and  _46
REMARK   22  A    between atoms: _46  and  _47
REMARK   23  A    between atoms: _46  and  _49
REMARK   24  A    between atoms: _49  and  _50
REMARK   25  A    between atoms: _55  and  _56
REMARK   26  A    between atoms: _58  and  _60
REMARK   27  A    between atoms: _60  and  _61
REMARK   28  A    between atoms: _60  and  _63
REMARK   29  A    between atoms: _63  and  _64
REMARK   30  A    between atoms: _69  and  _70
REMARK   31  A    between atoms: _72  and  _74
REMARK   32  A    between atoms: _74  and  _75
REMARK   33  A    between atoms: _74  and  _77
REMARK   34  A    between atoms: _77  and  _78
REMARK   35  A    between atoms: _81  and  _83
REMARK   36  A    between atoms: _83  and  _84
REMARK   37  A    between atoms: _83  and  _86
REMARK   38  A    between atoms: _89  and  _91
REMARK   39  A    between atoms: _91  and  _92
REMARK   40  A    between atoms: _91  and  _94
REMARK   41  A    between atoms: _94  and  _95
REMARK   42  A    between atoms: _98  and  _100
REMARK   43  A    between atoms: _100  and  _101
REMARK   44  A    between atoms: _100  and  _103
REMARK   45  A    between atoms: _103  and  _104
REMARK   46  A    between atoms: _107  and  _109
REMARK   47  A    between atoms: _109  and  _110
REMARK   48  A    between atoms: _112  and  _114
REMARK   49  A    between atoms: _114  and  _115
REMARK   50  A    between atoms: _114  and  _117
REMARK   51  A    between atoms: _117  and  _118
REMARK   52  A    between atoms: _120  and  _122
REMARK   53  A    between atoms: _122  and  _123
REMARK   54  A    between atoms: _122  and  _125
REMARK   55  A    between atoms: _125  and  _126
REMARK   56  A    between atoms: _128  and  _130
REMARK   57  A    between atoms: _130  and  _131
REMARK   58  A    between atoms: _130  and  _133
REMARK   59  A    between atoms: _133  and  _134
REMARK   60  A    between atoms: _139  and  _141
REMARK   61  A    between atoms: _141  and  _142
REMARK   62  A    between atoms: _141  and  _144
REMARK   63  A    between atoms: _144  and  _145
REMARK   64  A    between atoms: _150  and  _151
REMARK   65  A    between atoms: _153  and  _155
REMARK   66  A    between atoms: _155  and  _156
REMARK   67  A    between atoms: _155  and  _158
REMARK   68  A    between atoms: _162  and  _163
REMARK   69  A    between atoms: _168  and  _170
REMARK   70  A    between atoms: _170  and  _171
REMARK   71  A    between atoms: _170  and  _173
REMARK   72  A    between atoms: _173  and  _174
REMARK   73  A    between atoms: _179  and  _180
REMARK   74  A    between atoms: _182  and  _184
REMARK   75  A    between atoms: _184  and  _185
REMARK   76  A    between atoms: _184  and  _187
REMARK   77  A    between atoms: _187  and  _188
REMARK   78  A    between atoms: _191  and  _193
REMARK   79  A    between atoms: _193  and  _194
REMARK   80  A    between atoms: _193  and  _196
REMARK   81  A    between atoms: _196  and  _197
REMARK   82  A    between atoms: _197  and  _198
REMARK   83  A    between atoms: _203  and  _205
REMARK   84  A    between atoms: _205  and  _206
REMARK   85  A    between atoms: _208  and  _210
REMARK   86  A    between atoms: _210  and  _211
REMARK   87  A    between atoms: _210  and  _213
REMARK   88  A    between atoms: _213  and  _214
REMARK   89  A    between atoms: _214  and  _215
REMARK   90  A    between atoms: _215  and  _216
REMARK   91  A    between atoms: _216  and  _217
REMARK   92  A    between atoms: _221  and  _223
REMARK   93  A    between atoms: _223  and  _224
REMARK   94  A    between atoms: _223  and  _226
REMARK   95  A    between atoms: _226  and  _227
REMARK   96  A    between atoms: _237  and  _239
REMARK   97  A    between atoms: _239  and  _240
REMARK   98  A    between atoms: _239  and  _242
REMARK   99  A    between atoms: _242  and  _243
REMARK  100  A    between atoms: _246  and  _248
REMARK  101  A    between atoms: _248  and  _249
REMARK  102  A    between atoms: _248  and  _251
REMARK  103  A    between atoms: _251  and  _252
REMARK  104  A    between atoms: _252  and  _253
REMARK  105  A    between atoms: _253  and  _254
REMARK  106  A    between atoms: _254  and  _255
REMARK  107  A    between atoms: _259  and  _261
REMARK  108  A    between atoms: _261  and  _262
REMARK  109  A    between atoms: _261  and  _264
REMARK  110  A    between atoms: _264  and  _265
REMARK  111  A    between atoms: _271  and  _273
REMARK  112  A    between atoms: _273  and  _274
REMARK  113  A    between atoms: _273  and  _276
REMARK  114  A    between atoms: _276  and  _277
REMARK  115  A    between atoms: _283  and  _285
REMARK  116  A    between atoms: _285  and  _286
REMARK  117  A    between atoms: _285  and  _288
REMARK  118  A    between atoms: _288  and  _289
REMARK  119  A    between atoms: _292  and  _294
REMARK  120  A    between atoms: _294  and  _295
REMARK  121  A    between atoms: _294  and  _297
REMARK  122  A    between atoms: _297  and  _298
REMARK  123  A    between atoms: _300  and  _302
REMARK  124  A    between atoms: _302  and  _303
REMARK  125  A    between atoms: _302  and  _305
REMARK  126  A    between atoms: _305  and  _306
REMARK  127  A    between atoms: _316  and  _318
REMARK  128  A    between atoms: _318  and  _319
REMARK  129  A    between atoms: _321  and  _323
REMARK  130  A    between atoms: _323  and  _324
REMARK  131  A    between atoms: _323  and  _326
REMARK  132  A    between atoms: _326  and  _327
REMARK  133  A    between atoms: _330  and  _332
REMARK  134  A    between atoms: _332  and  _333
REMARK  135  A    between atoms: _332  and  _335
REMARK  136  A    between atoms: _335  and  _336
REMARK  137  A    between atoms: _339  and  _341
REMARK  138  A    between atoms: _341  and  _342
REMARK  139  A    between atoms: _341  and  _344
REMARK  140  A    between atoms: _344  and  _345
REMARK  141  A    between atoms: _348  and  _350
REMARK  142  A    between atoms: _350  and  _351
REMARK  143  A    between atoms: _354  and  _356
REMARK  144  A    between atoms: _356  and  _357
REMARK  145  A    between atoms: _356  and  _359
REMARK  146  A    between atoms: _359  and  _360
REMARK  147  A    between atoms: _365  and  _366
REMARK  148  A    between atoms: _368  and  _370
REMARK  149  A    between atoms: _370  and  _371
REMARK  150  A    between atoms: _370  and  _373
REMARK  151  A    between atoms: _373  and  _374
REMARK  152  A    between atoms: _374  and  _375
REMARK  153  A    between atoms: _378  and  _380
REMARK  154  A    between atoms: _380  and  _381
REMARK  155  A    between atoms: _380  and  _383
REMARK  156  A    between atoms: _383  and  _384
REMARK  157  A    between atoms: _387  and  _389
REMARK  158  A    between atoms: _389  and  _390
REMARK  159  A    between atoms: _393  and  _395
REMARK  160  A    between atoms: _395  and  _396
REMARK  161  A    between atoms: _395  and  _398
REMARK  162  A    between atoms: _398  and  _399
REMARK  163  A    between atoms: _399  and  _400
REMARK  164  A    between atoms: _400  and  _401
REMARK  165  A    between atoms: _410  and  _412
REMARK  166  A    between atoms: _412  and  _413
REMARK  167  A    between atoms: _412  and  _415
REMARK  168  A    between atoms: _415  and  _416
REMARK  169  A    between atoms: _419  and  _421
REMARK  170  A    between atoms: _421  and  _422
REMARK  171  A    between atoms: _421  and  _424
REMARK  172  A    between atoms: _424  and  _425
REMARK  173  A    between atoms: _435  and  _437
REMARK  174  A    between atoms: _437  and  _438
REMARK  175  A    between atoms: _437  and  _440
REMARK  176  A    between atoms: _440  and  _441
REMARK  177  A    between atoms: _446  and  _447
REMARK  178  A    between atoms: _449  and  _451
REMARK  179  A    between atoms: _451  and  _452
REMARK  180  A    between atoms: _451  and  _454
REMARK  181  A    between atoms: _454  and  _455
REMARK  182  A    between atoms: _455  and  _456
REMARK  183  A    between atoms: _456  and  _457
REMARK  184  A    between atoms: _457  and  _458
REMARK  185  A    between atoms: _462  and  _464
REMARK  186  A    between atoms: _464  and  _465
REMARK  187  A    between atoms: _464  and  _467
REMARK  188  A    between atoms: _467  and  _468
REMARK  189  A    between atoms: _471  and  _473
REMARK  190  A    between atoms: _473  and  _474
REMARK  191  A    between atoms: _473  and  _476
REMARK  192  A    between atoms: _479  and  _481
REMARK  193  A    between atoms: _481  and  _482
REMARK  194  A    between atoms: _481  and  _484
REMARK  195  A    between atoms: _484  and  _485
REMARK  196  A    between atoms: _488  and  _490
REMARK  197  A    between atoms: _490  and  _491
REMARK  198  A    between atoms: _490  and  _493
REMARK  199  A    between atoms: _493  and  _494
REMARK  200  A    between atoms: _496  and  _498
REMARK  201  A    between atoms: _498  and  _499
REMARK  202  A    between atoms: _501  and  _503
REMARK  203  A    between atoms: _503  and  _504
REMARK  204  A    between atoms: _503  and  _506
REMARK  205  A    between atoms: _506  and  _507
REMARK  206  A    between atoms: _510  and  _512
REMARK  207  A    between atoms: _512  and  _513
REMARK  208  A    between atoms: _512  and  _515
REMARK  209  A    between atoms: _515  and  _516
REMARK  210  A    between atoms: _519  and  _521
REMARK  211  A    between atoms: _521  and  _522
REMARK  212  A    between atoms: _521  and  _524
REMARK  213  A    between atoms: _524  and  _525
REMARK  214  A    between atoms: _530  and  _532
REMARK  215  A    between atoms: _532  and  _533
REMARK  216  A    between atoms: _532  and  _535
REMARK  217  A    between atoms: _535  and  _536
REMARK  218  A    between atoms: _539  and  _541
REMARK  219  A    between atoms: _541  and  _542
REMARK  220  A    between atoms: _541  and  _544
REMARK  221  A    between atoms: _544  and  _545
REMARK  222  A    between atoms: _545  and  _546
REMARK  223  A    between atoms: _546  and  _547
REMARK  224  A    between atoms: _556  and  _558
REMARK  225  A    between atoms: _558  and  _559
REMARK  226  A    between atoms: _558  and  _561
REMARK  227  A    between atoms: _561  and  _562
REMARK  228  A    between atoms: _562  and  _563
REMARK  229  A    between atoms: _563  and  _564
REMARK  230  A    between atoms: _573  and  _575
REMARK  231  A    between atoms: _575  and  _576
REMARK  232  A    between atoms: _575  and  _578
REMARK  233  A    between atoms: _578  and  _579
REMARK  234  A    between atoms: _581  and  _583
REMARK  235  A    between atoms: _583  and  _584
REMARK  236  A    between atoms: _583  and  _586
REMARK  237  A    between atoms: _586  and  _587
REMARK  238  A    between atoms: _587  and  _588
REMARK  239  A    between atoms: _593  and  _595
REMARK  240  A    between atoms: _595  and  _596
REMARK  241  A    between atoms: _595  and  _598
REMARK  242  A    between atoms: _598  and  _599
REMARK  243  A    between atoms: _601  and  _603
REMARK  244  A    between atoms: _603  and  _604
REMARK  245  A    between atoms: _603  and  _606
REMARK  246  A    between atoms: _606  and  _607
REMARK  247  A    between atoms: _610  and  _612
REMARK  248  A    between atoms: _612  and  _613
REMARK  249  A    between atoms: _612  and  _615
REMARK  250  A    between atoms: _615  and  _616
REMARK  251  A    between atoms: _619  and  _621
REMARK  252  A    between atoms: _621  and  _622
REMARK  253  A    between atoms: _621  and  _624
REMARK  254  A    between atoms: _627  and  _629
REMARK  255  A    between atoms: _629  and  _630
REMARK  256  A    between atoms: _632  and  _634
REMARK  257  A    between atoms: _634  and  _635
REMARK  258  A    between atoms: _638  and  _640
REMARK  259  A    between atoms: _640  and  _641
REMARK  260  A    between atoms: _640  and  _643
REMARK  261  A    between atoms: _646  and  _648
REMARK  262  A    between atoms: _648  and  _649
REMARK  263  A    between atoms: _648  and  _651
REMARK  264  A    between atoms: _651  and  _652
REMARK  265  A    between atoms: _652  and  _653
REMARK  266  A    between atoms: _655  and  _657
REMARK  267  A    between atoms: _657  and  _658
REMARK  268  A    between atoms: _657  and  _660
REMARK  269  A    between atoms: _660  and  _661
REMARK  270  A    between atoms: _661  and  _662
REMARK                            x       y       z     vdW  Elec       q    Type
REMARK                         _______ _______ _______ _____ _____    ______ ____
ROOT
ATOM      1  C   THR A   6       1.856  -0.876  32.864  0.00  0.00    +0.243 C 
ATOM      2  O   THR A   6       2.297  -0.242  33.819  0.00  0.00    -0.273 OA
ATOM      3  N   THR A   7       2.624  -1.272  31.854  0.00  0.00    -0.295 N 
ATOM      4  H   THR A   7       2.206  -1.786  31.052  0.00  0.00    +0.150 HD
ENDROOT
BRANCH   3   5
ATOM      5  CA  THR A   7       4.054  -0.984  31.873  0.00  0.00    +0.176 C 
BRANCH   5   6
ATOM      6  C   THR A   7       4.428   0.449  31.518  0.00  0.00    +0.243 C 
ATOM      7  O   THR A   7       5.182   1.090  32.252  0.00  0.00    -0.273 OA
ATOM      8  N   ASN A   8       3.886   0.959  30.412  0.00  0.00    -0.297 N 
ATOM      9  H   ASN A   8       3.207   0.386  29.872  0.00  0.00    +0.150 HD
BRANCH   8  10
ATOM     10  CA  ASN A   8       4.218   2.300  29.937  0.00  0.00    +0.158 C 
BRANCH  10  11
ATOM     11  C   ASN A   8       3.452   3.452  30.552  0.00  0.00    +0.241 C 
ATOM     12  O   ASN A   8       2.479   3.269  31.283  0.00  0.00    -0.273 OA
ATOM     13  N   LEU A   9       3.935   4.655  30.253  0.00  0.00    -0.297 N 
ATOM     14  H   LEU A   9       4.835   4.720  29.737  0.00  0.00    +0.150 HD
BRANCH  13  15
ATOM     15  CA  LEU A   9       3.250   5.877  30.622  0.00  0.00    +0.149 C 
BRANCH  15  16
ATOM     16  C   LEU A   9       2.471   6.000  29.301  0.00  0.00    +0.241 C 
ATOM     17  N   ARG A  10       1.145   5.899  29.344  0.00  0.00    -0.298 N 
ATOM     18  H   ARG A  10       0.666   5.736  30.252  0.00  0.00    +0.150 HD
ATOM     19  O   LEU A   9       3.091   6.136  28.231  0.00  0.00    -0.273 OA
BRANCH  17  20
ATOM     20  CA  ARG A  10       0.364   6.016  28.120  0.00  0.00    +0.137 C 
BRANCH  20  21
ATOM     21  C   ARG A  10      -0.331   7.375  28.144  0.00  0.00    +0.227 C 
ATOM     22  O   ARG A  10      -0.896   7.784  29.169  0.00  0.00    -0.286 OA
ENDBRANCH  20  21
BRANCH  20  23
ATOM     23  CB  ARG A  10      -0.658   4.866  28.003  0.00  0.00    +0.031 C 
BRANCH  23  24
ATOM     24  CG  ARG A  10      -0.113   3.532  28.486  0.00  0.00    +0.045 C 
BRANCH  24  25
ATOM     25  CD  ARG A  10      -0.516   2.347  27.631  0.00  0.00    +0.174 C 
BRANCH  25  26
ATOM     26  NE  ARG A  10      -1.803   2.483  26.964  0.00  0.00    -0.265 N 
ATOM     27  HE  ARG A  10      -2.586   2.932  27.480  0.00  0.00    +0.259 HD
ATOM     28  CZ  ARG A  10      -2.019   2.057  25.723  0.00  0.00    +0.342 C 
ATOM     29  NH2 ARG A  10      -3.209   2.195  25.155  0.00  0.00    -0.292 N 
ATOM     30 HH21 ARG A  10      -3.988   2.641  25.681  0.00  0.00    +0.255 HD
ATOM     31 HH22 ARG A  10      -3.364   1.857  24.184  0.00  0.00    +0.255 HD
ATOM     32  NH1 ARG A  10      -1.026   1.502  25.041  0.00  0.00    -0.292 N 
ATOM     33 HH11 ARG A  10      -0.087   1.403  25.477  0.00  0.00    +0.255 HD
ATOM     34 HH12 ARG A  10      -1.186   1.166  24.070  0.00  0.00    +0.255 HD
ENDBRANCH  25  26
ENDBRANCH  24  25
ENDBRANCH  23  24
ENDBRANCH  20  23
ENDBRANCH  17  20
ENDBRANCH  15  16
BRANCH  15  35
ATOM     35  CB  LEU A   9       4.234   7.053  30.720  0.00  0.00    +0.029 C 
BRANCH  35  36
ATOM     36  CG  LEU A   9       3.864   8.375  31.411  0.00  0.00    +0.002 C 
ATOM     37  CD2 LEU A   9       2.366   8.585  31.486  0.00  0.00    +0.000 C 
ATOM     38  CD1 LEU A   9       4.565   9.536  30.688  0.00  0.00    +0.000 C 
ENDBRANCH  35  36
ENDBRANCH  15  35
ENDBRANCH  13  15
ENDBRANCH  10  11
BRANCH  10  39
ATOM     39  CB  ASN A   8       3.983   2.385  28.423  0.00  0.00    +0.114 C 
BRANCH  39  40
ATOM     40  CG  ASN A   8       4.934   1.518  27.628  0.00  0.00    +0.222 C 
ATOM     41  OD1 ASN A   8       5.719   0.754  28.183  0.00  0.00    -0.275 OA
ATOM     42  ND2 ASN A   8       4.861   1.633  26.303  0.00  0.00    -0.329 N 
ATOM     43 HD21 ASN A   8       4.181   2.293  25.875  0.00  0.00    +0.145 HD
ATOM     44 HD22 ASN A   8       5.484   1.063  25.696  0.00  0.00    +0.145 HD
ENDBRANCH  39  40
ENDBRANCH  10  39
ENDBRANCH   8  10
ENDBRANCH   5   6
BRANCH   5  45
ATOM     45  CB  THR A   7       4.832  -1.959  30.948  0.00  0.00    +0.137 C 
ATOM     46  CG2 THR A   7       6.192  -1.383  30.562  0.00  0.00    +0.034 C 
BRANCH  45  47
ATOM     47  OG1 THR A   7       5.038  -3.198  31.641  0.00  0.00    -0.382 OA
ATOM     48  HG1 THR A   7       4.161  -3.591  31.879  0.00  0.00    +0.210 HD
ENDBRANCH  45  47
ENDBRANCH   5  45
ENDBRANCH   3   5
BRANCH   1  49
ATOM     49  CA  THR A   6       0.377  -1.227  32.792  0.00  0.00    +0.176 C 
BRANCH  49  51
ATOM     50  C   GLY A   5      -0.486  -2.930  34.310  0.00  0.00    +0.243 C 
ATOM     51  N   THR A   6      -0.016  -1.704  34.113  0.00  0.00    -0.295 N 
ATOM     52  H   THR A   6       0.075  -1.063  34.927  0.00  0.00    +0.150 HD
ATOM     53  O   GLY A   5      -0.665  -3.743  33.395  0.00  0.00    -0.273 OA
BRANCH  50  54
ATOM     54  CA  GLY A   5      -0.806  -3.295  35.743  0.00  0.00    +0.176 C 
BRANCH  54  57
ATOM     55  C   SER A   4       0.351  -2.006  37.457  0.00  0.00    +0.243 C 
ATOM     56  O   SER A   4       1.341  -2.745  37.430  0.00  0.00    -0.273 OA
ATOM     57  N   GLY A   5      -0.719  -2.176  36.678  0.00  0.00    -0.295 N 
ATOM     58  H   GLY A   5      -1.506  -1.499  36.738  0.00  0.00    +0.150 HD
BRANCH  55  59
ATOM     59  CA  SER A   4       0.313  -0.821  38.418  0.00  0.00    +0.178 C 
BRANCH  59  61
ATOM     60  C   ASP A   3      -0.982   0.779  37.131  0.00  0.00    +0.241 C 
ATOM     61  N   SER A   4      -0.857   0.021  38.211  0.00  0.00    -0.295 N 
ATOM     62  H   SER A   4      -1.611   0.028  38.927  0.00  0.00    +0.150 HD
ATOM     63  O   ASP A   3      -0.140   0.805  36.240  0.00  0.00    -0.273 OA
BRANCH  60  64
ATOM     64  CA  ASP A   3      -2.258   1.603  37.035  0.00  0.00    +0.160 C 
BRANCH  64  67
ATOM     65  C   VAL A   2      -2.974   3.688  38.050  0.00  0.00    +0.241 C 
ATOM     66  O   VAL A   2      -3.871   3.111  38.685  0.00  0.00    -0.273 OA
ATOM     67  N   ASP A   3      -2.117   3.040  37.265  0.00  0.00    -0.297 N 
ATOM     68  H   ASP A   3      -1.340   3.561  36.811  0.00  0.00    +0.150 HD
BRANCH  65  69
ATOM     69  CA  VAL A   2      -2.793   5.198  38.160  0.00  0.00    +0.148 C 
BRANCH  69  71
ATOM     70  C   ILE A   1      -4.152   6.303  36.476  0.00  0.00    +0.238 C 
ATOM     71  N   VAL A   2      -4.056   5.746  37.678  0.00  0.00    -0.297 N 
ATOM     72  H   VAL A   2      -4.898   5.700  38.287  0.00  0.00    +0.150 HD
ATOM     73  O   ILE A   1      -3.179   6.440  35.719  0.00  0.00    -0.274 OA
BRANCH  70  74
ATOM     74  CA  ILE A   1      -5.545   6.778  36.075  0.00  0.00    +0.145 C 
BRANCH  74  75
ATOM     75  N   ILE A   1      -5.529   7.742  34.990  0.00  0.00    -0.238 NA
ATOM     76  H   ILE A   1      -5.022   7.522  34.109  0.00  0.00    +0.142 HD
ENDBRANCH  74  75
BRANCH  74  77
ATOM     77  CB  ILE A   1      -6.396   5.519  35.688  0.00  0.00    +0.025 C 
ATOM     78  CG2 ILE A   1      -7.768   5.966  35.127  0.00  0.00    +0.002 C 
BRANCH  77  79
ATOM     79  CG1 ILE A   1      -5.651   4.683  34.630  0.00  0.00    +0.002 C 
ATOM     80  CD1 ILE A   1      -6.287   3.324  34.337  0.00  0.00    +0.000 C 
ENDBRANCH  77  79
ENDBRANCH  74  77
ENDBRANCH  70  74
ENDBRANCH  69  71
BRANCH  69  81
ATOM     81  CB  VAL A   2      -2.519   5.609  39.625  0.00  0.00    +0.027 C 
ATOM     82  CG2 VAL A   2      -1.163   5.061  40.083  0.00  0.00    +0.002 C 
ATOM     83  CG1 VAL A   2      -2.535   7.132  39.735  0.00  0.00    +0.002 C 
ENDBRANCH  69  81
ENDBRANCH  65  69
ENDBRANCH  64  67
BRANCH  64  84
ATOM     84  CB  ASP A   3      -2.905   1.383  35.658  0.00  0.00    +0.143 C 
BRANCH  84  85
ATOM     85  CG  ASP A   3      -3.171  -0.086  35.369  0.00  0.00    +0.367 C 
ATOM     86  OD2 ASP A   3      -3.209  -0.874  36.333  0.00  0.00    -0.246 OA
ATOM     87  OD1 ASP A   3      -3.357  -0.449  34.189  0.00  0.00    -0.246 OA
ENDBRANCH  84  85
ENDBRANCH  64  84
ENDBRANCH  60  64
ENDBRANCH  59  61
BRANCH  59  88
ATOM     88  CB  SER A   4       0.323  -1.350  39.855  0.00  0.00    +0.166 C 
BRANCH  88  89
ATOM     89  OG  SER A   4      -0.813  -2.158  40.095  0.00  0.00    -0.380 OA
ATOM     90  H   SER A   4      -0.809  -2.926  39.470  0.00  0.00    +0.211 HD
ENDBRANCH  88  89
ENDBRANCH  59  88
ENDBRANCH  55  59
ENDBRANCH  54  57
ENDBRANCH  50  54
ENDBRANCH  49  51
BRANCH  49  91
ATOM     91  CB  THR A   6      -0.408   0.036  32.387  0.00  0.00    +0.137 C 
ATOM     92  CG2 THR A   6       0.204   0.650  31.141  0.00  0.00    +0.034 C 
BRANCH  91  93
ATOM     93  OG1 THR A   6      -1.770  -0.320  32.120  0.00  0.00    -0.382 OA
ATOM     94  HG1 THR A   6      -2.172  -0.715  32.934  0.00  0.00    +0.210 HD
ENDBRANCH  91  93
ENDBRANCH  49  91
ENDBRANCH   1  49
TORSDOF 39
REMARK  Name = ../refined-set-2016/2g94/2g94_pocket.pdb
REMARK  270 active torsions:
REMARK  status: ('A' for Active; 'I' for Inactive)
REMARK    1  A    between atoms: _1  and  _3
REMARK    2  A    between atoms: _3  and  _4
REMARK    3  A    between atoms: _3  and  _6
REMARK    4  A    between atoms: _6  and  _7
REMARK    5  A    between atoms: _7  and  _8
REMARK    6  A    between atoms: _8  and  _9
REMARK    7  A    between atoms: _9  and  _10
REMARK    8  A    between atoms: _14  and  _16
REMARK    9  A    between atoms: _16  and  _17
REMARK   10  A    between atoms: _16  and  _19
REMARK   11  A    between atoms: _19  and  _20
REMARK   12  A    between atoms: _22  and  _24
REMARK   13  A    between atoms: _24  and  _25
REMARK   14  A    between atoms: _27  and  _29
REMARK   15  A    between atoms: _29  and  _30
REMARK   16  A    between atoms: _29  and  _32
REMARK   17  A    between atoms: _32  and  _33
REMARK   18  A    between atoms: _33  and  _34
REMARK   19  A    between atoms: _39  and  _41
REMARK   20  A    between atoms: _41  and  _42
REMARK   21  A    between atoms: _44  and  _46
REMARK   22  A    between atoms: _46  and  _47
REMARK   23  A    between atoms: _46  and  _49
REMARK   24  A    between atoms: _49  and  _50
REMARK   25  A    between atoms: _55  and  _56
REMARK   26  A    between atoms: _58  and  _60
REMARK   27  A    between atoms: _60  and  _61
REMARK   28  A    between atoms: _60  and  _63
REMARK   29  A    between atoms: _63  and  _64
REMARK   30  A    between atoms: _69  and  _70
REMARK   31  A    between atoms: _72  and  _74
REMARK   32  A    between atoms: _74  and  _75
REMARK   33  A    between atoms: _74  and  _77
REMARK   34  A    between atoms: _77  and  _78
REMARK   35  A    between atoms: _81  and  _83
REMARK   36  A    between atoms: _83  and  _84
REMARK   37  A    between atoms: _83  and  _86
REMARK   38  A    between atoms: _89  and  _91
REMARK   39  A    between atoms: _91  and  _92
REMARK   40  A    between atoms: _91  and  _94
REMARK   41  A    between atoms: _94  and  _95
REMARK   42  A    between atoms: _98  and  _100
REMARK   43  A    between atoms: _100  and  _101
REMARK   44  A    between atoms: _100  and  _103
REMARK   45  A    between atoms: _103  and  _104
REMARK   46  A    between atoms: _107  and  _109
REMARK   47  A    between atoms: _109  and  _110
REMARK   48  A    between atoms: _112  and  _114
REMARK   49  A    between atoms: _114  and  _115
REMARK   50  A    between atoms: _114  and  _117
REMARK   51  A    between atoms: _117  and  _118
REMARK   52  A    between atoms: _120  and  _122
REMARK   53  A    between atoms: _122  and  _123
REMARK   54  A    between atoms: _122  and  _125
REMARK   55  A    between atoms: _125  and  _126
REMARK   56  A    between atoms: _128  and  _130
REMARK   57  A    between atoms: _130  and  _131
REMARK   58  A    between atoms: _130  and  _133
REMARK   59  A    between atoms: _133  and  _134
REMARK   60  A    between atoms: _139  and  _141
REMARK   61  A    between atoms: _141  and  _142
REMARK   62  A    between atoms: _141  and  _144
REMARK   63  A    between atoms: _144  and  _145
REMARK   64  A    between atoms: _150  and  _151
REMARK   65  A    between atoms: _153  and  _155
REMARK   66  A    between atoms: _155  and  _156
REMARK   67  A    between atoms: _155  and  _158
REMARK   68  A    between atoms: _162  and  _163
REMARK   69  A    between atoms: _168  and  _170
REMARK   70  A    between atoms: _170  and  _171
REMARK   71  A    between atoms: _170  and  _173
REMARK   72  A    between atoms: _173  and  _174
REMARK   73  A    between atoms: _179  and  _180
REMARK   74  A    between atoms: _182  and  _184
REMARK   75  A    between atoms: _184  and  _185
REMARK   76  A    between atoms: _184  and  _187
REMARK   77  A    between atoms: _187  and  _188
REMARK   78  A    between atoms: _191  and  _193
REMARK   79  A    between atoms: _193  and  _194
REMARK   80  A    between atoms: _193  and  _196
REMARK   81  A    between atoms: _196  and  _197
REMARK   82  A    between atoms: _197  and  _198
REMARK   83  A    between atoms: _203  and  _205
REMARK   84  A    between atoms: _205  and  _206
REMARK   85  A    between atoms: _208  and  _210
REMARK   86  A    between atoms: _210  and  _211
REMARK   87  A    between atoms: _210  and  _213
REMARK   88  A    between atoms: _213  and  _214
REMARK   89  A    between atoms: _214  and  _215
REMARK   90  A    between atoms: _215  and  _216
REMARK   91  A    between atoms: _216  and  _217
REMARK   92  A    between atoms: _221  and  _223
REMARK   93  A    between atoms: _223  and  _224
REMARK   94  A    between atoms: _223  and  _226
REMARK   95  A    between atoms: _226  and  _227
REMARK   96  A    between atoms: _237  and  _239
REMARK   97  A    between atoms: _239  and  _240
REMARK   98  A    between atoms: _239  and  _242
REMARK   99  A    between atoms: _242  and  _243
REMARK  100  A    between atoms: _246  and  _248
REMARK  101  A    between atoms: _248  and  _249
REMARK  102  A    between atoms: _248  and  _251
REMARK  103  A    between atoms: _251  and  _252
REMARK  104  A    between atoms: _252  and  _253
REMARK  105  A    between atoms: _253  and  _254
REMARK  106  A    between atoms: _254  and  _255
REMARK  107  A    between atoms: _259  and  _261
REMARK  108  A    between atoms: _261  and  _262
REMARK  109  A    between atoms: _261  and  _264
REMARK  110  A    between atoms: _264  and  _265
REMARK  111  A    between atoms: _271  and  _273
REMARK  112  A    between atoms: _273  and  _274
REMARK  113  A    between atoms: _273  and  _276
REMARK  114  A    between atoms: _276  and  _277
REMARK  115  A    between atoms: _283  and  _285
REMARK  116  A    between atoms: _285  and  _286
REMARK  117  A    between atoms: _285  and  _288
REMARK  118  A    between atoms: _288  and  _289
REMARK  119  A    between atoms: _292  and  _294
REMARK  120  A    between atoms: _294  and  _295
REMARK  121  A    between atoms: _294  and  _297
REMARK  122  A    between atoms: _297  and  _298
REMARK  123  A    between atoms: _300  and  _302
REMARK  124  A    between atoms: _302  and  _303
REMARK  125  A    between atoms: _302  and  _305
REMARK  126  A    between atoms: _305  and  _306
REMARK  127  A    between atoms: _316  and  _318
REMARK  128  A    between atoms: _318  and  _319
REMARK  129  A    between atoms: _321  and  _323
REMARK  130  A    between atoms: _323  and  _324
REMARK  131  A    between atoms: _323  and  _326
REMARK  132  A    between atoms: _326  and  _327
REMARK  133  A    between atoms: _330  and  _332
REMARK  134  A    between atoms: _332  and  _333
REMARK  135  A    between atoms: _332  and  _335
REMARK  136  A    between atoms: _335  and  _336
REMARK  137  A    between atoms: _339  and  _341
REMARK  138  A    between atoms: _341  and  _342
REMARK  139  A    between atoms: _341  and  _344
REMARK  140  A    between atoms: _344  and  _345
REMARK  141  A    between atoms: _348  and  _350
REMARK  142  A    between atoms: _350  and  _351
REMARK  143  A    between atoms: _354  and  _356
REMARK  144  A    between atoms: _356  and  _357
REMARK  145  A    between atoms: _356  and  _359
REMARK  146  A    between atoms: _359  and  _360
REMARK  147  A    between atoms: _365  and  _366
REMARK  148  A    between atoms: _368  and  _370
REMARK  149  A    between atoms: _370  and  _371
REMARK  150  A    between atoms: _370  and  _373
REMARK  151  A    between atoms: _373  and  _374
REMARK  152  A    between atoms: _374  and  _375
REMARK  153  A    between atoms: _378  and  _380
REMARK  154  A    between atoms: _380  and  _381
REMARK  155  A    between atoms: _380  and  _383
REMARK  156  A    between atoms: _383  and  _384
REMARK  157  A    between atoms: _387  and  _389
REMARK  158  A    between atoms: _389  and  _390
REMARK  159  A    between atoms: _393  and  _395
REMARK  160  A    between atoms: _395  and  _396
REMARK  161  A    between atoms: _395  and  _398
REMARK  162  A    between atoms: _398  and  _399
REMARK  163  A    between atoms: _399  and  _400
REMARK  164  A    between atoms: _400  and  _401
REMARK  165  A    between atoms: _410  and  _412
REMARK  166  A    between atoms: _412  and  _413
REMARK  167  A    between atoms: _412  and  _415
REMARK  168  A    between atoms: _415  and  _416
REMARK  169  A    between atoms: _419  and  _421
REMARK  170  A    between atoms: _421  and  _422
REMARK  171  A    between atoms: _421  and  _424
REMARK  172  A    between atoms: _424  and  _425
REMARK  173  A    between atoms: _435  and  _437
REMARK  174  A    between atoms: _437  and  _438
REMARK  175  A    between atoms: _437  and  _440
REMARK  176  A    between atoms: _440  and  _441
REMARK  177  A    between atoms: _446  and  _447
REMARK  178  A    between atoms: _449  and  _451
REMARK  179  A    between atoms: _451  and  _452
REMARK  180  A    between atoms: _451  and  _454
REMARK  181  A    between atoms: _454  and  _455
REMARK  182  A    between atoms: _455  and  _456
REMARK  183  A    between atoms: _456  and  _457
REMARK  184  A    between atoms: _457  and  _458
REMARK  185  A    between atoms: _462  and  _464
REMARK  186  A    between atoms: _464  and  _465
REMARK  187  A    between atoms: _464  and  _467
REMARK  188  A    between atoms: _467  and  _468
REMARK  189  A    between atoms: _471  and  _473
REMARK  190  A    between atoms: _473  and  _474
REMARK  191  A    between atoms: _473  and  _476
REMARK  192  A    between atoms: _479  and  _481
REMARK  193  A    between atoms: _481  and  _482
REMARK  194  A    between atoms: _481  and  _484
REMARK  195  A    between atoms: _484  and  _485
REMARK  196  A    between atoms: _488  and  _490
REMARK  197  A    between atoms: _490  and  _491
REMARK  198  A    between atoms: _490  and  _493
REMARK  199  A    between atoms: _493  and  _494
REMARK  200  A    between atoms: _496  and  _498
REMARK  201  A    between atoms: _498  and  _499
REMARK  202  A    between atoms: _501  and  _503
REMARK  203  A    between atoms: _503  and  _504
REMARK  204  A    between atoms: _503  and  _506
REMARK  205  A    between atoms: _506  and  _507
REMARK  206  A    between atoms: _510  and  _512
REMARK  207  A    between atoms: _512  and  _513
REMARK  208  A    between atoms: _512  and  _515
REMARK  209  A    between atoms: _515  and  _516
REMARK  210  A    between atoms: _519  and  _521
REMARK  211  A    between atoms: _521  and  _522
REMARK  212  A    between atoms: _521  and  _524
REMARK  213  A    between atoms: _524  and  _525
REMARK  214  A    between atoms: _530  and  _532
REMARK  215  A    between atoms: _532  and  _533
REMARK  216  A    between atoms: _532  and  _535
REMARK  217  A    between atoms: _535  and  _536
REMARK  218  A    between atoms: _539  and  _541
REMARK  219  A    between atoms: _541  and  _542
REMARK  220  A    between atoms: _541  and  _544
REMARK  221  A    between atoms: _544  and  _545
REMARK  222  A    between atoms: _545  and  _546
REMARK  223  A    between atoms: _546  and  _547
REMARK  224  A    between atoms: _556  and  _558
REMARK  225  A    between atoms: _558  and  _559
REMARK  226  A    between atoms: _558  and  _561
REMARK  227  A    between atoms: _561  and  _562
REMARK  228  A    between atoms: _562  and  _563
REMARK  229  A    between atoms: _563  and  _564
REMARK  230  A    between atoms: _573  and  _575
REMARK  231  A    between atoms: _575  and  _576
REMARK  232  A    between atoms: _575  and  _578
REMARK  233  A    between atoms: _578  and  _579
REMARK  234  A    between atoms: _581  and  _583
REMARK  235  A    between atoms: _583  and  _584
REMARK  236  A    between atoms: _583  and  _586
REMARK  237  A    between atoms: _586  and  _587
REMARK  238  A    between atoms: _587  and  _588
REMARK  239  A    between atoms: _593  and  _595
REMARK  240  A    between atoms: _595  and  _596
REMARK  241  A    between atoms: _595  and  _598
REMARK  242  A    between atoms: _598  and  _599
REMARK  243  A    between atoms: _601  and  _603
REMARK  244  A    between atoms: _603  and  _604
REMARK  245  A    between atoms: _603  and  _606
REMARK  246  A    between atoms: _606  and  _607
REMARK  247  A    between atoms: _610  and  _612
REMARK  248  A    between atoms: _612  and  _613
REMARK  249  A    between atoms: _612  and  _615
REMARK  250  A    between atoms: _615  and  _616
REMARK  251  A    between atoms: _619  and  _621
REMARK  252  A    between atoms: _621  and  _622
REMARK  253  A    between atoms: _621  and  _624
REMARK  254  A    between atoms: _627  and  _629
REMARK  255  A    between atoms: _629  and  _630
REMARK  256  A    between atoms: _632  and  _634
REMARK  257  A    between atoms: _634  and  _635
REMARK  258  A    between atoms: _638  and  _640
REMARK  259  A    between atoms: _640  and  _641
REMARK  260  A    between atoms: _640  and  _643
REMARK  261  A    between atoms: _646  and  _648
REMARK  262  A    between atoms: _648  and  _649
REMARK  263  A    between atoms: _648  and  _651
REMARK  264  A    between atoms: _651  and  _652
REMARK  265  A    between atoms: _652  and  _653
REMARK  266  A    between atoms: _655  and  _657
REMARK  267  A    between atoms: _657  and  _658
REMARK  268  A    between atoms: _657  and  _660
REMARK  269  A    between atoms: _660  and  _661
REMARK  270  A    between atoms: _661  and  _662
REMARK                            x       y       z     vdW  Elec       q    Type
REMARK                         _______ _______ _______ _____ _____    ______ ____
ROOT
ATOM      1  NE  ARG A   1       9.342  -2.205  28.785  0.00  0.00    -0.265 N 
ATOM      2  HE  ARG A   1       8.848  -1.472  28.237  0.00  0.00    +0.259 HD
ATOM      3  CZ  ARG A   1       9.498  -3.397  28.219  0.00  0.00    +0.342 C 
ATOM      4  NH2 ARG A   1      10.119  -4.379  28.868  0.00  0.00    -0.292 N 
ATOM      5 HH21 ARG A   1      10.487  -4.217  29.827  0.00  0.00    +0.255 HD
ATOM      6 HH22 ARG A   1      10.236  -5.308  28.416  0.00  0.00    +0.255 HD
ATOM      7  NH1 ARG A   1       9.029  -3.614  26.994  0.00  0.00    -0.292 N 
ATOM      8 HH11 ARG A   1       9.150  -4.546  26.549  0.00  0.00    +0.255 HD
ATOM      9 HH12 ARG A   1       8.541  -2.852  26.481  0.00  0.00    +0.255 HD
ENDROOT
BRANCH   1  10
ATOM     10  CD  ARG A   1       9.815  -1.850  30.124  0.00  0.00    +0.174 C 
BRANCH  10  11
ATOM     11  CG  ARG A   1      11.302  -1.477  30.146  0.00  0.00    +0.045 C 
BRANCH  11  12
ATOM     12  CB  ARG A   1      11.540  -0.169  29.406  0.00  0.00    +0.029 C 
BRANCH  12  13
ATOM     13  CA  ARG A   1      12.922   0.458  29.615  0.00  0.00    +0.133 C 
BRANCH  13  14
ATOM     14  N   ARG A   1      12.949   1.769  28.957  0.00  0.00    -0.239 NA
ATOM     15  H   ARG A   1      12.323   1.937  28.143  0.00  0.00    +0.142 HD
ENDBRANCH  13  14
BRANCH  13  16
ATOM     16  C   ARG A   1      14.021  -0.488  29.135  0.00  0.00    +0.224 C 
ATOM     17  O   ARG A   1      14.119  -0.786  27.953  0.00  0.00    -0.287 OA
ENDBRANCH  13  16
ENDBRANCH  12  13
ENDBRANCH  11  12
ENDBRANCH  10  11
ENDBRANCH   1  10
TORSDOF 6
REMARK  Name = ../refined-set-2016/2g94/2g94_pocket.pdb
REMARK  270 active torsions:
REMARK  status: ('A' for Active; 'I' for Inactive)
REMARK    1  A    between atoms: _1  and  _3
REMARK    2  A    between atoms: _3  and  _4
REMARK    3  A    between atoms: _3  and  _6
REMARK    4  A    between atoms: _6  and  _7
REMARK    5  A    between atoms: _7  and  _8
REMARK    6  A    between atoms: _8  and  _9
REMARK    7  A    between atoms: _9  and  _10
REMARK    8  A    between atoms: _14  and  _16
REMARK    9  A    between atoms: _16  and  _17
REMARK   10  A    between atoms: _16  and  _19
REMARK   11  A    between atoms: _19  and  _20
REMARK   12  A    between atoms: _22  and  _24
REMARK   13  A    between atoms: _24  and  _25
REMARK   14  A    between atoms: _27  and  _29
REMARK   15  A    between atoms: _29  and  _30
REMARK   16  A    between atoms: _29  and  _32
REMARK   17  A    between atoms: _32  and  _33
REMARK   18  A    between atoms: _33  and  _34
REMARK   19  A    between atoms: _39  and  _41
REMARK   20  A    between atoms: _41  and  _42
REMARK   21  A    between atoms: _44  and  _46
REMARK   22  A    between atoms: _46  and  _47
REMARK   23  A    between atoms: _46  and  _49
REMARK   24  A    between atoms: _49  and  _50
REMARK   25  A    between atoms: _55  and  _56
REMARK   26  A    between atoms: _58  and  _60
REMARK   27  A    between atoms: _60  and  _61
REMARK   28  A    between atoms: _60  and  _63
REMARK   29  A    between atoms: _63  and  _64
REMARK   30  A    between atoms: _69  and  _70
REMARK   31  A    between atoms: _72  and  _74
REMARK   32  A    between atoms: _74  and  _75
REMARK   33  A    between atoms: _74  and  _77
REMARK   34  A    between atoms: _77  and  _78
REMARK   35  A    between atoms: _81  and  _83
REMARK   36  A    between atoms: _83  and  _84
REMARK   37  A    between atoms: _83  and  _86
REMARK   38  A    between atoms: _89  and  _91
REMARK   39  A    between atoms: _91  and  _92
REMARK   40  A    between atoms: _91  and  _94
REMARK   41  A    between atoms: _94  and  _95
REMARK   42  A    between atoms: _98  and  _100
REMARK   43  A    between atoms: _100  and  _101
REMARK   44  A    between atoms: _100  and  _103
REMARK   45  A    between atoms: _103  and  _104
REMARK   46  A    between atoms: _107  and  _109
REMARK   47  A    between atoms: _109  and  _110
REMARK   48  A    between atoms: _112  and  _114
REMARK   49  A    between atoms: _114  and  _115
REMARK   50  A    between atoms: _114  and  _117
REMARK   51  A    between atoms: _117  and  _118
REMARK   52  A    between atoms: _120  and  _122
REMARK   53  A    between atoms: _122  and  _123
REMARK   54  A    between atoms: _122  and  _125
REMARK   55  A    between atoms: _125  and  _126
REMARK   56  A    between atoms: _128  and  _130
REMARK   57  A    between atoms: _130  and  _131
REMARK   58  A    between atoms: _130  and  _133
REMARK   59  A    between atoms: _133  and  _134
REMARK   60  A    between atoms: _139  and  _141
REMARK   61  A    between atoms: _141  and  _142
REMARK   62  A    between atoms: _141  and  _144
REMARK   63  A    between atoms: _144  and  _145
REMARK   64  A    between atoms: _150  and  _151
REMARK   65  A    between atoms: _153  and  _155
REMARK   66  A    between atoms: _155  and  _156
REMARK   67  A    between atoms: _155  and  _158
REMARK   68  A    between atoms: _162  and  _163
REMARK   69  A    between atoms: _168  and  _170
REMARK   70  A    between atoms: _170  and  _171
REMARK   71  A    between atoms: _170  and  _173
REMARK   72  A    between atoms: _173  and  _174
REMARK   73  A    between atoms: _179  and  _180
REMARK   74  A    between atoms: _182  and  _184
REMARK   75  A    between atoms: _184  and  _185
REMARK   76  A    between atoms: _184  and  _187
REMARK   77  A    between atoms: _187  and  _188
REMARK   78  A    between atoms: _191  and  _193
REMARK   79  A    between atoms: _193  and  _194
REMARK   80  A    between atoms: _193  and  _196
REMARK   81  A    between atoms: _196  and  _197
REMARK   82  A    between atoms: _197  and  _198
REMARK   83  A    between atoms: _203  and  _205
REMARK   84  A    between atoms: _205  and  _206
REMARK   85  A    between atoms: _208  and  _210
REMARK   86  A    between atoms: _210  and  _211
REMARK   87  A    between atoms: _210  and  _213
REMARK   88  A    between atoms: _213  and  _214
REMARK   89  A    between atoms: _214  and  _215
REMARK   90  A    between atoms: _215  and  _216
REMARK   91  A    between atoms: _216  and  _217
REMARK   92  A    between atoms: _221  and  _223
REMARK   93  A    between atoms: _223  and  _224
REMARK   94  A    between atoms: _223  and  _226
REMARK   95  A    between atoms: _226  and  _227
REMARK   96  A    between atoms: _237  and  _239
REMARK   97  A    between atoms: _239  and  _240
REMARK   98  A    between atoms: _239  and  _242
REMARK   99  A    between atoms: _242  and  _243
REMARK  100  A    between atoms: _246  and  _248
REMARK  101  A    between atoms: _248  and  _249
REMARK  102  A    between atoms: _248  and  _251
REMARK  103  A    between atoms: _251  and  _252
REMARK  104  A    between atoms: _252  and  _253
REMARK  105  A    between atoms: _253  and  _254
REMARK  106  A    between atoms: _254  and  _255
REMARK  107  A    between atoms: _259  and  _261
REMARK  108  A    between atoms: _261  and  _262
REMARK  109  A    between atoms: _261  and  _264
REMARK  110  A    between atoms: _264  and  _265
REMARK  111  A    between atoms: _271  and  _273
REMARK  112  A    between atoms: _273  and  _274
REMARK  113  A    between atoms: _273  and  _276
REMARK  114  A    between atoms: _276  and  _277
REMARK  115  A    between atoms: _283  and  _285
REMARK  116  A    between atoms: _285  and  _286
REMARK  117  A    between atoms: _285  and  _288
REMARK  118  A    between atoms: _288  and  _289
REMARK  119  A    between atoms: _292  and  _294
REMARK  120  A    between atoms: _294  and  _295
REMARK  121  A    between atoms: _294  and  _297
REMARK  122  A    between atoms: _297  and  _298
REMARK  123  A    between atoms: _300  and  _302
REMARK  124  A    between atoms: _302  and  _303
REMARK  125  A    between atoms: _302  and  _305
REMARK  126  A    between atoms: _305  and  _306
REMARK  127  A    between atoms: _316  and  _318
REMARK  128  A    between atoms: _318  and  _319
REMARK  129  A    between atoms: _321  and  _323
REMARK  130  A    between atoms: _323  and  _324
REMARK  131  A    between atoms: _323  and  _326
REMARK  132  A    between atoms: _326  and  _327
REMARK  133  A    between atoms: _330  and  _332
REMARK  134  A    between atoms: _332  and  _333
REMARK  135  A    between atoms: _332  and  _335
REMARK  136  A    between atoms: _335  and  _336
REMARK  137  A    between atoms: _339  and  _341
REMARK  138  A    between atoms: _341  and  _342
REMARK  139  A    between atoms: _341  and  _344
REMARK  140  A    between atoms: _344  and  _345
REMARK  141  A    between atoms: _348  and  _350
REMARK  142  A    between atoms: _350  and  _351
REMARK  143  A    between atoms: _354  and  _356
REMARK  144  A    between atoms: _356  and  _357
REMARK  145  A    between atoms: _356  and  _359
REMARK  146  A    between atoms: _359  and  _360
REMARK  147  A    between atoms: _365  and  _366
REMARK  148  A    between atoms: _368  and  _370
REMARK  149  A    between atoms: _370  and  _371
REMARK  150  A    between atoms: _370  and  _373
REMARK  151  A    between atoms: _373  and  _374
REMARK  152  A    between atoms: _374  and  _375
REMARK  153  A    between atoms: _378  and  _380
REMARK  154  A    between atoms: _380  and  _381
REMARK  155  A    between atoms: _380  and  _383
REMARK  156  A    between atoms: _383  and  _384
REMARK  157  A    between atoms: _387  and  _389
REMARK  158  A    between atoms: _389  and  _390
REMARK  159  A    between atoms: _393  and  _395
REMARK  160  A    between atoms: _395  and  _396
REMARK  161  A    between atoms: _395  and  _398
REMARK  162  A    between atoms: _398  and  _399
REMARK  163  A    between atoms: _399  and  _400
REMARK  164  A    between atoms: _400  and  _401
REMARK  165  A    between atoms: _410  and  _412
REMARK  166  A    between atoms: _412  and  _413
REMARK  167  A    between atoms: _412  and  _415
REMARK  168  A    between atoms: _415  and  _416
REMARK  169  A    between atoms: _419  and  _421
REMARK  170  A    between atoms: _421  and  _422
REMARK  171  A    between atoms: _421  and  _424
REMARK  172  A    between atoms: _424  and  _425
REMARK  173  A    between atoms: _435  and  _437
REMARK  174  A    between atoms: _437  and  _438
REMARK  175  A    between atoms: _437  and  _440
REMARK  176  A    between atoms: _440  and  _441
REMARK  177  A    between atoms: _446  and  _447
REMARK  178  A    between atoms: _449  and  _451
REMARK  179  A    between atoms: _451  and  _452
REMARK  180  A    between atoms: _451  and  _454
REMARK  181  A    between atoms: _454  and  _455
REMARK  182  A    between atoms: _455  and  _456
REMARK  183  A    between atoms: _456  and  _457
REMARK  184  A    between atoms: _457  and  _458
REMARK  185  A    between atoms: _462  and  _464
REMARK  186  A    between atoms: _464  and  _465
REMARK  187  A    between atoms: _464  and  _467
REMARK  188  A    between atoms: _467  and  _468
REMARK  189  A    between atoms: _471  and  _473
REMARK  190  A    between atoms: _473  and  _474
REMARK  191  A    between atoms: _473  and  _476
REMARK  192  A    between atoms: _479  and  _481
REMARK  193  A    between atoms: _481  and  _482
REMARK  194  A    between atoms: _481  and  _484
REMARK  195  A    between atoms: _484  and  _485
REMARK  196  A    between atoms: _488  and  _490
REMARK  197  A    between atoms: _490  and  _491
REMARK  198  A    between atoms: _490  and  _493
REMARK  199  A    between atoms: _493  and  _494
REMARK  200  A    between atoms: _496  and  _498
REMARK  201  A    between atoms: _498  and  _499
REMARK  202  A    between atoms: _501  and  _503
REMARK  203  A    between atoms: _503  and  _504
REMARK  204  A    between atoms: _503  and  _506
REMARK  205  A    between atoms: _506  and  _507
REMARK  206  A    between atoms: _510  and  _512
REMARK  207  A    between atoms: _512  and  _513
REMARK  208  A    between atoms: _512  and  _515
REMARK  209  A    between atoms: _515  and  _516
REMARK  210  A    between atoms: _519  and  _521
REMARK  211  A    between atoms: _521  and  _522
REMARK  212  A    between atoms: _521  and  _524
REMARK  213  A    between atoms: _524  and  _525
REMARK  214  A    between atoms: _530  and  _532
REMARK  215  A    between atoms: _532  and  _533
REMARK  216  A    between atoms: _532  and  _535
REMARK  217  A    between atoms: _535  and  _536
REMARK  218  A    between atoms: _539  and  _541
REMARK  219  A    between atoms: _541  and  _542
REMARK  220  A    between atoms: _541  and  _544
REMARK  221  A    between atoms: _544  and  _545
REMARK  222  A    between atoms: _545  and  _546
REMARK  223  A    between atoms: _546  and  _547
REMARK  224  A    between atoms: _556  and  _558
REMARK  225  A    between atoms: _558  and  _559
REMARK  226  A    between atoms: _558  and  _561
REMARK  227  A    between atoms: _561  and  _562
REMARK  228  A    between atoms: _562  and  _563
REMARK  229  A    between atoms: _563  and  _564
REMARK  230  A    between atoms: _573  and  _575
REMARK  231  A    between atoms: _575  and  _576
REMARK  232  A    between atoms: _575  and  _578
REMARK  233  A    between atoms: _578  and  _579
REMARK  234  A    between atoms: _581  and  _583
REMARK  235  A    between atoms: _583  and  _584
REMARK  236  A    between atoms: _583  and  _586
REMARK  237  A    between atoms: _586  and  _587
REMARK  238  A    between atoms: _587  and  _588
REMARK  239  A    between atoms: _593  and  _595
REMARK  240  A    between atoms: _595  and  _596
REMARK  241  A    between atoms: _595  and  _598
REMARK  242  A    between atoms: _598  and  _599
REMARK  243  A    between atoms: _601  and  _603
REMARK  244  A    between atoms: _603  and  _604
REMARK  245  A    between atoms: _603  and  _606
REMARK  246  A    between atoms: _606  and  _607
REMARK  247  A    between atoms: _610  and  _612
REMARK  248  A    between atoms: _612  and  _613
REMARK  249  A    between atoms: _612  and  _615
REMARK  250  A    between atoms: _615  and  _616
REMARK  251  A    between atoms: _619  and  _621
REMARK  252  A    between atoms: _621  and  _622
REMARK  253  A    between atoms: _621  and  _624
REMARK  254  A    between atoms: _627  and  _629
REMARK  255  A    between atoms: _629  and  _630
REMARK  256  A    between atoms: _632  and  _634
REMARK  257  A    between atoms: _634  and  _635
REMARK  258  A    between atoms: _638  and  _640
REMARK  259  A    between atoms: _640  and  _641
REMARK  260  A    between atoms: _640  and  _643
REMARK  261  A    between atoms: _646  and  _648
REMARK  262  A    between atoms: _648  and  _649
REMARK  263  A    between atoms: _648  and  _651
REMARK  264  A    between atoms: _651  and  _652
REMARK  265  A    between atoms: _652  and  _653
REMARK  266  A    between atoms: _655  and  _657
REMARK  267  A    between atoms: _657  and  _658
REMARK  268  A    between atoms: _657  and  _660
REMARK  269  A    between atoms: _660  and  _661
REMARK  270  A    between atoms: _661  and  _662
REMARK                            x       y       z     vdW  Elec       q    Type
REMARK                         _______ _______ _______ _____ _____    ______ ____
ROOT
ATOM      1  CA  GLN A   2      -0.402   6.651  22.831  0.00  0.00    +0.149 C 
ENDROOT
BRANCH   1   4
ATOM      2  C   SER A   1       1.570   5.994  24.071  0.00  0.00    +0.241 C 
ATOM      3  O   SER A   1       1.131   6.511  25.105  0.00  0.00    -0.274 OA
ATOM      4  N   GLN A   2       0.895   5.995  22.924  0.00  0.00    -0.297 N 
ATOM      5  H   GLN A   2       1.297   5.524  22.088  0.00  0.00    +0.150 HD
BRANCH   2   6
ATOM      6  CA  SER A   1       2.930   5.312  24.053  0.00  0.00    +0.174 C 
BRANCH   6   7
ATOM      7  N   SER A   1       3.727   5.617  25.239  0.00  0.00    -0.236 NA
ATOM      8  H   SER A   1       3.260   5.696  26.165  0.00  0.00    +0.142 HD
ENDBRANCH   6   7
BRANCH   6   9
ATOM      9  CB  SER A   1       2.759   3.800  23.918  0.00  0.00    +0.163 C 
BRANCH   9  10
ATOM     10  OG  SER A   1       2.275   3.251  25.120  0.00  0.00    -0.380 OA
ATOM     11  H   SER A   1       2.170   2.272  25.016  0.00  0.00    +0.211 HD
ENDBRANCH   9  10
ENDBRANCH   6   9
ENDBRANCH   2   6
ENDBRANCH   1   4
BRANCH   1  12
ATOM     12  C   GLN A   2      -1.547   5.788  23.350  0.00  0.00    +0.241 C 
ATOM     13  N   SER A   3      -2.584   6.469  23.818  0.00  0.00    -0.296 N 
ATOM     14  H   SER A   3      -2.545   7.508  23.794  0.00  0.00    +0.150 HD
ATOM     15  O   GLN A   2      -1.497   4.553  23.308  0.00  0.00    -0.273 OA
BRANCH  13  16
ATOM     16  CA  SER A   3      -3.778   5.832  24.365  0.00  0.00    +0.166 C 
BRANCH  16  17
ATOM     17  C   SER A   3      -5.035   6.484  23.813  0.00  0.00    +0.229 C 
ATOM     18  O   SER A   3      -5.068   7.694  23.603  0.00  0.00    -0.286 OA
ENDBRANCH  16  17
BRANCH  16  19
ATOM     19  CB  SER A   3      -3.789   5.975  25.889  0.00  0.00    +0.165 C 
BRANCH  19  20
ATOM     20  OG  SER A   3      -5.083   5.733  26.431  0.00  0.00    -0.380 OA
ATOM     21  H   SER A   3      -5.051   5.834  27.415  0.00  0.00    +0.211 HD
ENDBRANCH  19  20
ENDBRANCH  16  19
ENDBRANCH  13  16
ENDBRANCH   1  12
BRANCH   1  22
ATOM     22  CB  GLN A   2      -0.708   7.071  21.381  0.00  0.00    +0.039 C 
BRANCH  22  23
ATOM     23  CG  GLN A   2      -1.090   5.933  20.463  0.00  0.00    +0.087 C 
BRANCH  23  24
ATOM     24  CD  GLN A   2      -1.544   6.415  19.079  0.00  0.00    +0.219 C 
ATOM     25  NE2 GLN A   2      -1.308   7.696  18.776  0.00  0.00    -0.329 N 
ATOM     26 HE21 GLN A   2      -0.842   8.317  19.468  0.00  0.00    +0.145 HD
ATOM     27 HE22 GLN A   2      -1.591   8.072  17.848  0.00  0.00    +0.145 HD
ATOM     28  OE1 GLN A   2      -2.096   5.633  18.292  0.00  0.00    -0.275 OA
ENDBRANCH  23  24
ENDBRANCH  22  23
ENDBRANCH   1  22
TORSDOF 13
REMARK  Name = ../refined-set-2016/2g94/2g94_pocket.pdb
REMARK  270 active torsions:
REMARK  status: ('A' for Active; 'I' for Inactive)
REMARK    1  A    between atoms: _1  and  _3
REMARK    2  A    between atoms: _3  and  _4
REMARK    3  A    between atoms: _3  and  _6
REMARK    4  A    between atoms: _6  and  _7
REMARK    5  A    between atoms: _7  and  _8
REMARK    6  A    between atoms: _8  and  _9
REMARK    7  A    between atoms: _9  and  _10
REMARK    8  A    between atoms: _14  and  _16
REMARK    9  A    between atoms: _16  and  _17
REMARK   10  A    between atoms: _16  and  _19
REMARK   11  A    between atoms: _19  and  _20
REMARK   12  A    between atoms: _22  and  _24
REMARK   13  A    between atoms: _24  and  _25
REMARK   14  A    between atoms: _27  and  _29
REMARK   15  A    between atoms: _29  and  _30
REMARK   16  A    between atoms: _29  and  _32
REMARK   17  A    between atoms: _32  and  _33
REMARK   18  A    between atoms: _33  and  _34
REMARK   19  A    between atoms: _39  and  _41
REMARK   20  A    between atoms: _41  and  _42
REMARK   21  A    between atoms: _44  and  _46
REMARK   22  A    between atoms: _46  and  _47
REMARK   23  A    between atoms: _46  and  _49
REMARK   24  A    between atoms: _49  and  _50
REMARK   25  A    between atoms: _55  and  _56
REMARK   26  A    between atoms: _58  and  _60
REMARK   27  A    between atoms: _60  and  _61
REMARK   28  A    between atoms: _60  and  _63
REMARK   29  A    between atoms: _63  and  _64
REMARK   30  A    between atoms: _69  and  _70
REMARK   31  A    between atoms: _72  and  _74
REMARK   32  A    between atoms: _74  and  _75
REMARK   33  A    between atoms: _74  and  _77
REMARK   34  A    between atoms: _77  and  _78
REMARK   35  A    between atoms: _81  and  _83
REMARK   36  A    between atoms: _83  and  _84
REMARK   37  A    between atoms: _83  and  _86
REMARK   38  A    between atoms: _89  and  _91
REMARK   39  A    between atoms: _91  and  _92
REMARK   40  A    between atoms: _91  and  _94
REMARK   41  A    between atoms: _94  and  _95
REMARK   42  A    between atoms: _98  and  _100
REMARK   43  A    between atoms: _100  and  _101
REMARK   44  A    between atoms: _100  and  _103
REMARK   45  A    between atoms: _103  and  _104
REMARK   46  A    between atoms: _107  and  _109
REMARK   47  A    between atoms: _109  and  _110
REMARK   48  A    between atoms: _112  and  _114
REMARK   49  A    between atoms: _114  and  _115
REMARK   50  A    between atoms: _114  and  _117
REMARK   51  A    between atoms: _117  and  _118
REMARK   52  A    between atoms: _120  and  _122
REMARK   53  A    between atoms: _122  and  _123
REMARK   54  A    between atoms: _122  and  _125
REMARK   55  A    between atoms: _125  and  _126
REMARK   56  A    between atoms: _128  and  _130
REMARK   57  A    between atoms: _130  and  _131
REMARK   58  A    between atoms: _130  and  _133
REMARK   59  A    between atoms: _133  and  _134
REMARK   60  A    between atoms: _139  and  _141
REMARK   61  A    between atoms: _141  and  _142
REMARK   62  A    between atoms: _141  and  _144
REMARK   63  A    between atoms: _144  and  _145
REMARK   64  A    between atoms: _150  and  _151
REMARK   65  A    between atoms: _153  and  _155
REMARK   66  A    between atoms: _155  and  _156
REMARK   67  A    between atoms: _155  and  _158
REMARK   68  A    between atoms: _162  and  _163
REMARK   69  A    between atoms: _168  and  _170
REMARK   70  A    between atoms: _170  and  _171
REMARK   71  A    between atoms: _170  and  _173
REMARK   72  A    between atoms: _173  and  _174
REMARK   73  A    between atoms: _179  and  _180
REMARK   74  A    between atoms: _182  and  _184
REMARK   75  A    between atoms: _184  and  _185
REMARK   76  A    between atoms: _184  and  _187
REMARK   77  A    between atoms: _187  and  _188
REMARK   78  A    between atoms: _191  and  _193
REMARK   79  A    between atoms: _193  and  _194
REMARK   80  A    between atoms: _193  and  _196
REMARK   81  A    between atoms: _196  and  _197
REMARK   82  A    between atoms: _197  and  _198
REMARK   83  A    between atoms: _203  and  _205
REMARK   84  A    between atoms: _205  and  _206
REMARK   85  A    between atoms: _208  and  _210
REMARK   86  A    between atoms: _210  and  _211
REMARK   87  A    between atoms: _210  and  _213
REMARK   88  A    between atoms: _213  and  _214
REMARK   89  A    between atoms: _214  and  _215
REMARK   90  A    between atoms: _215  and  _216
REMARK   91  A    between atoms: _216  and  _217
REMARK   92  A    between atoms: _221  and  _223
REMARK   93  A    between atoms: _223  and  _224
REMARK   94  A    between atoms: _223  and  _226
REMARK   95  A    between atoms: _226  and  _227
REMARK   96  A    between atoms: _237  and  _239
REMARK   97  A    between atoms: _239  and  _240
REMARK   98  A    between atoms: _239  and  _242
REMARK   99  A    between atoms: _242  and  _243
REMARK  100  A    between atoms: _246  and  _248
REMARK  101  A    between atoms: _248  and  _249
REMARK  102  A    between atoms: _248  and  _251
REMARK  103  A    between atoms: _251  and  _252
REMARK  104  A    between atoms: _252  and  _253
REMARK  105  A    between atoms: _253  and  _254
REMARK  106  A    between atoms: _254  and  _255
REMARK  107  A    between atoms: _259  and  _261
REMARK  108  A    between atoms: _261  and  _262
REMARK  109  A    between atoms: _261  and  _264
REMARK  110  A    between atoms: _264  and  _265
REMARK  111  A    between atoms: _271  and  _273
REMARK  112  A    between atoms: _273  and  _274
REMARK  113  A    between atoms: _273  and  _276
REMARK  114  A    between atoms: _276  and  _277
REMARK  115  A    between atoms: _283  and  _285
REMARK  116  A    between atoms: _285  and  _286
REMARK  117  A    between atoms: _285  and  _288
REMARK  118  A    between atoms: _288  and  _289
REMARK  119  A    between atoms: _292  and  _294
REMARK  120  A    between atoms: _294  and  _295
REMARK  121  A    between atoms: _294  and  _297
REMARK  122  A    between atoms: _297  and  _298
REMARK  123  A    between atoms: _300  and  _302
REMARK  124  A    between atoms: _302  and  _303
REMARK  125  A    between atoms: _302  and  _305
REMARK  126  A    between atoms: _305  and  _306
REMARK  127  A    between atoms: _316  and  _318
REMARK  128  A    between atoms: _318  and  _319
REMARK  129  A    between atoms: _321  and  _323
REMARK  130  A    between atoms: _323  and  _324
REMARK  131  A    between atoms: _323  and  _326
REMARK  132  A    between atoms: _326  and  _327
REMARK  133  A    between atoms: _330  and  _332
REMARK  134  A    between atoms: _332  and  _333
REMARK  135  A    between atoms: _332  and  _335
REMARK  136  A    between atoms: _335  and  _336
REMARK  137  A    between atoms: _339  and  _341
REMARK  138  A    between atoms: _341  and  _342
REMARK  139  A    between atoms: _341  and  _344
REMARK  140  A    between atoms: _344  and  _345
REMARK  141  A    between atoms: _348  and  _350
REMARK  142  A    between atoms: _350  and  _351
REMARK  143  A    between atoms: _354  and  _356
REMARK  144  A    between atoms: _356  and  _357
REMARK  145  A    between atoms: _356  and  _359
REMARK  146  A    between atoms: _359  and  _360
REMARK  147  A    between atoms: _365  and  _366
REMARK  148  A    between atoms: _368  and  _370
REMARK  149  A    between atoms: _370  and  _371
REMARK  150  A    between atoms: _370  and  _373
REMARK  151  A    between atoms: _373  and  _374
REMARK  152  A    between atoms: _374  and  _375
REMARK  153  A    between atoms: _378  and  _380
REMARK  154  A    between atoms: _380  and  _381
REMARK  155  A    between atoms: _380  and  _383
REMARK  156  A    between atoms: _383  and  _384
REMARK  157  A    between atoms: _387  and  _389
REMARK  158  A    between atoms: _389  and  _390
REMARK  159  A    between atoms: _393  and  _395
REMARK  160  A    between atoms: _395  and  _396
REMARK  161  A    between atoms: _395  and  _398
REMARK  162  A    between atoms: _398  and  _399
REMARK  163  A    between atoms: _399  and  _400
REMARK  164  A    between atoms: _400  and  _401
REMARK  165  A    between atoms: _410  and  _412
REMARK  166  A    between atoms: _412  and  _413
REMARK  167  A    between atoms: _412  and  _415
REMARK  168  A    between atoms: _415  and  _416
REMARK  169  A    between atoms: _419  and  _421
REMARK  170  A    between atoms: _421  and  _422
REMARK  171  A    between atoms: _421  and  _424
REMARK  172  A    between atoms: _424  and  _425
REMARK  173  A    between atoms: _435  and  _437
REMARK  174  A    between atoms: _437  and  _438
REMARK  175  A    between atoms: _437  and  _440
REMARK  176  A    between atoms: _440  and  _441
REMARK  177  A    between atoms: _446  and  _447
REMARK  178  A    between atoms: _449  and  _451
REMARK  179  A    between atoms: _451  and  _452
REMARK  180  A    between atoms: _451  and  _454
REMARK  181  A    between atoms: _454  and  _455
REMARK  182  A    between atoms: _455  and  _456
REMARK  183  A    between atoms: _456  and  _457
REMARK  184  A    between atoms: _457  and  _458
REMARK  185  A    between atoms: _462  and  _464
REMARK  186  A    between atoms: _464  and  _465
REMARK  187  A    between atoms: _464  and  _467
REMARK  188  A    between atoms: _467  and  _468
REMARK  189  A    between atoms: _471  and  _473
REMARK  190  A    between atoms: _473  and  _474
REMARK  191  A    between atoms: _473  and  _476
REMARK  192  A    between atoms: _479  and  _481
REMARK  193  A    between atoms: _481  and  _482
REMARK  194  A    between atoms: _481  and  _484
REMARK  195  A    between atoms: _484  and  _485
REMARK  196  A    between atoms: _488  and  _490
REMARK  197  A    between atoms: _490  and  _491
REMARK  198  A    between atoms: _490  and  _493
REMARK  199  A    between atoms: _493  and  _494
REMARK  200  A    between atoms: _496  and  _498
REMARK  201  A    between atoms: _498  and  _499
REMARK  202  A    between atoms: _501  and  _503
REMARK  203  A    between atoms: _503  and  _504
REMARK  204  A    between atoms: _503  and  _506
REMARK  205  A    between atoms: _506  and  _507
REMARK  206  A    between atoms: _510  and  _512
REMARK  207  A    between atoms: _512  and  _513
REMARK  208  A    between atoms: _512  and  _515
REMARK  209  A    between atoms: _515  and  _516
REMARK  210  A    between atoms: _519  and  _521
REMARK  211  A    between atoms: _521  and  _522
REMARK  212  A    between atoms: _521  and  _524
REMARK  213  A    between atoms: _524  and  _525
REMARK  214  A    between atoms: _530  and  _532
REMARK  215  A    between atoms: _532  and  _533
REMARK  216  A    between atoms: _532  and  _535
REMARK  217  A    between atoms: _535  and  _536
REMARK  218  A    between atoms: _539  and  _541
REMARK  219  A    between atoms: _541  and  _542
REMARK  220  A    between atoms: _541  and  _544
REMARK  221  A    between atoms: _544  and  _545
REMARK  222  A    between atoms: _545  and  _546
REMARK  223  A    between atoms: _546  and  _547
REMARK  224  A    between atoms: _556  and  _558
REMARK  225  A    between atoms: _558  and  _559
REMARK  226  A    between atoms: _558  and  _561
REMARK  227  A    between atoms: _561  and  _562
REMARK  228  A    between atoms: _562  and  _563
REMARK  229  A    between atoms: _563  and  _564
REMARK  230  A    between atoms: _573  and  _575
REMARK  231  A    between atoms: _575  and  _576
REMARK  232  A    between atoms: _575  and  _578
REMARK  233  A    between atoms: _578  and  _579
REMARK  234  A    between atoms: _581  and  _583
REMARK  235  A    between atoms: _583  and  _584
REMARK  236  A    between atoms: _583  and  _586
REMARK  237  A    between atoms: _586  and  _587
REMARK  238  A    between atoms: _587  and  _588
REMARK  239  A    between atoms: _593  and  _595
REMARK  240  A    between atoms: _595  and  _596
REMARK  241  A    between atoms: _595  and  _598
REMARK  242  A    between atoms: _598  and  _599
REMARK  243  A    between atoms: _601  and  _603
REMARK  244  A    between atoms: _603  and  _604
REMARK  245  A    between atoms: _603  and  _606
REMARK  246  A    between atoms: _606  and  _607
REMARK  247  A    between atoms: _610  and  _612
REMARK  248  A    between atoms: _612  and  _613
REMARK  249  A    between atoms: _612  and  _615
REMARK  250  A    between atoms: _615  and  _616
REMARK  251  A    between atoms: _619  and  _621
REMARK  252  A    between atoms: _621  and  _622
REMARK  253  A    between atoms: _621  and  _624
REMARK  254  A    between atoms: _627  and  _629
REMARK  255  A    between atoms: _629  and  _630
REMARK  256  A    between atoms: _632  and  _634
REMARK  257  A    between atoms: _634  and  _635
REMARK  258  A    between atoms: _638  and  _640
REMARK  259  A    between atoms: _640  and  _641
REMARK  260  A    between atoms: _640  and  _643
REMARK  261  A    between atoms: _646  and  _648
REMARK  262  A    between atoms: _648  and  _649
REMARK  263  A    between atoms: _648  and  _651
REMARK  264  A    between atoms: _651  and  _652
REMARK  265  A    between atoms: _652  and  _653
REMARK  266  A    between atoms: _655  and  _657
REMARK  267  A    between atoms: _657  and  _658
REMARK  268  A    between atoms: _657  and  _660
REMARK  269  A    between atoms: _660  and  _661
REMARK  270  A    between atoms: _661  and  _662
REMARK                            x       y       z     vdW  Elec       q    Type
REMARK                         _______ _______ _______ _____ _____    ______ ____
ROOT
ATOM      1  CA  THR A   1      -8.693   5.758  26.637  0.00  0.00    +0.160 C 
ENDROOT
BRANCH   1   2
ATOM      2  N   THR A   1      -7.836   5.814  25.457  0.00  0.00    -0.237 NA
ATOM      3  H   THR A   1      -6.834   5.545  25.536  0.00  0.00    +0.142 HD
ENDBRANCH   1   2
BRANCH   1   4
ATOM      4  C   THR A   1      -8.162   6.545  27.836  0.00  0.00    +0.227 C 
ATOM      5  O   THR A   1      -8.350   6.143  28.987  0.00  0.00    -0.287 OA
ENDBRANCH   1   4
BRANCH   1   6
ATOM      6  CB  THR A   1      -8.970   4.291  27.064  0.00  0.00    +0.134 C 
ATOM      7  CG2 THR A   1      -9.744   3.565  25.955  0.00  0.00    +0.034 C 
BRANCH   6   8
ATOM      8  OG1 THR A   1      -7.733   3.606  27.317  0.00  0.00    -0.383 OA
ATOM      9  HG1 THR A   1      -7.923   2.673  27.588  0.00  0.00    +0.210 HD
ENDBRANCH   6   8
ENDBRANCH   1   6
TORSDOF 4
REMARK  Name = ../refined-set-2016/2g94/2g94_pocket.pdb
REMARK  270 active torsions:
REMARK  status: ('A' for Active; 'I' for Inactive)
REMARK    1  A    between atoms: _1  and  _3
REMARK    2  A    between atoms: _3  and  _4
REMARK    3  A    between atoms: _3  and  _6
REMARK    4  A    between atoms: _6  and  _7
REMARK    5  A    between atoms: _7  and  _8
REMARK    6  A    between atoms: _8  and  _9
REMARK    7  A    between atoms: _9  and  _10
REMARK    8  A    between atoms: _14  and  _16
REMARK    9  A    between atoms: _16  and  _17
REMARK   10  A    between atoms: _16  and  _19
REMARK   11  A    between atoms: _19  and  _20
REMARK   12  A    between atoms: _22  and  _24
REMARK   13  A    between atoms: _24  and  _25
REMARK   14  A    between atoms: _27  and  _29
REMARK   15  A    between atoms: _29  and  _30
REMARK   16  A    between atoms: _29  and  _32
REMARK   17  A    between atoms: _32  and  _33
REMARK   18  A    between atoms: _33  and  _34
REMARK   19  A    between atoms: _39  and  _41
REMARK   20  A    between atoms: _41  and  _42
REMARK   21  A    between atoms: _44  and  _46
REMARK   22  A    between atoms: _46  and  _47
REMARK   23  A    between atoms: _46  and  _49
REMARK   24  A    between atoms: _49  and  _50
REMARK   25  A    between atoms: _55  and  _56
REMARK   26  A    between atoms: _58  and  _60
REMARK   27  A    between atoms: _60  and  _61
REMARK   28  A    between atoms: _60  and  _63
REMARK   29  A    between atoms: _63  and  _64
REMARK   30  A    between atoms: _69  and  _70
REMARK   31  A    between atoms: _72  and  _74
REMARK   32  A    between atoms: _74  and  _75
REMARK   33  A    between atoms: _74  and  _77
REMARK   34  A    between atoms: _77  and  _78
REMARK   35  A    between atoms: _81  and  _83
REMARK   36  A    between atoms: _83  and  _84
REMARK   37  A    between atoms: _83  and  _86
REMARK   38  A    between atoms: _89  and  _91
REMARK   39  A    between atoms: _91  and  _92
REMARK   40  A    between atoms: _91  and  _94
REMARK   41  A    between atoms: _94  and  _95
REMARK   42  A    between atoms: _98  and  _100
REMARK   43  A    between atoms: _100  and  _101
REMARK   44  A    between atoms: _100  and  _103
REMARK   45  A    between atoms: _103  and  _104
REMARK   46  A    between atoms: _107  and  _109
REMARK   47  A    between atoms: _109  and  _110
REMARK   48  A    between atoms: _112  and  _114
REMARK   49  A    between atoms: _114  and  _115
REMARK   50  A    between atoms: _114  and  _117
REMARK   51  A    between atoms: _117  and  _118
REMARK   52  A    between atoms: _120  and  _122
REMARK   53  A    between atoms: _122  and  _123
REMARK   54  A    between atoms: _122  and  _125
REMARK   55  A    between atoms: _125  and  _126
REMARK   56  A    between atoms: _128  and  _130
REMARK   57  A    between atoms: _130  and  _131
REMARK   58  A    between atoms: _130  and  _133
REMARK   59  A    between atoms: _133  and  _134
REMARK   60  A    between atoms: _139  and  _141
REMARK   61  A    between atoms: _141  and  _142
REMARK   62  A    between atoms: _141  and  _144
REMARK   63  A    between atoms: _144  and  _145
REMARK   64  A    between atoms: _150  and  _151
REMARK   65  A    between atoms: _153  and  _155
REMARK   66  A    between atoms: _155  and  _156
REMARK   67  A    between atoms: _155  and  _158
REMARK   68  A    between atoms: _162  and  _163
REMARK   69  A    between atoms: _168  and  _170
REMARK   70  A    between atoms: _170  and  _171
REMARK   71  A    between atoms: _170  and  _173
REMARK   72  A    between atoms: _173  and  _174
REMARK   73  A    between atoms: _179  and  _180
REMARK   74  A    between atoms: _182  and  _184
REMARK   75  A    between atoms: _184  and  _185
REMARK   76  A    between atoms: _184  and  _187
REMARK   77  A    between atoms: _187  and  _188
REMARK   78  A    between atoms: _191  and  _193
REMARK   79  A    between atoms: _193  and  _194
REMARK   80  A    between atoms: _193  and  _196
REMARK   81  A    between atoms: _196  and  _197
REMARK   82  A    between atoms: _197  and  _198
REMARK   83  A    between atoms: _203  and  _205
REMARK   84  A    between atoms: _205  and  _206
REMARK   85  A    between atoms: _208  and  _210
REMARK   86  A    between atoms: _210  and  _211
REMARK   87  A    between atoms: _210  and  _213
REMARK   88  A    between atoms: _213  and  _214
REMARK   89  A    between atoms: _214  and  _215
REMARK   90  A    between atoms: _215  and  _216
REMARK   91  A    between atoms: _216  and  _217
REMARK   92  A    between atoms: _221  and  _223
REMARK   93  A    between atoms: _223  and  _224
REMARK   94  A    between atoms: _223  and  _226
REMARK   95  A    between atoms: _226  and  _227
REMARK   96  A    between atoms: _237  and  _239
REMARK   97  A    between atoms: _239  and  _240
REMARK   98  A    between atoms: _239  and  _242
REMARK   99  A    between atoms: _242  and  _243
REMARK  100  A    between atoms: _246  and  _248
REMARK  101  A    between atoms: _248  and  _249
REMARK  102  A    between atoms: _248  and  _251
REMARK  103  A    between atoms: _251  and  _252
REMARK  104  A    between atoms: _252  and  _253
REMARK  105  A    between atoms: _253  and  _254
REMARK  106  A    between atoms: _254  and  _255
REMARK  107  A    between atoms: _259  and  _261
REMARK  108  A    between atoms: _261  and  _262
REMARK  109  A    between atoms: _261  and  _264
REMARK  110  A    between atoms: _264  and  _265
REMARK  111  A    between atoms: _271  and  _273
REMARK  112  A    between atoms: _273  and  _274
REMARK  113  A    between atoms: _273  and  _276
REMARK  114  A    between atoms: _276  and  _277
REMARK  115  A    between atoms: _283  and  _285
REMARK  116  A    between atoms: _285  and  _286
REMARK  117  A    between atoms: _285  and  _288
REMARK  118  A    between atoms: _288  and  _289
REMARK  119  A    between atoms: _292  and  _294
REMARK  120  A    between atoms: _294  and  _295
REMARK  121  A    between atoms: _294  and  _297
REMARK  122  A    between atoms: _297  and  _298
REMARK  123  A    between atoms: _300  and  _302
REMARK  124  A    between atoms: _302  and  _303
REMARK  125  A    between atoms: _302  and  _305
REMARK  126  A    between atoms: _305  and  _306
REMARK  127  A    between atoms: _316  and  _318
REMARK  128  A    between atoms: _318  and  _319
REMARK  129  A    between atoms: _321  and  _323
REMARK  130  A    between atoms: _323  and  _324
REMARK  131  A    between atoms: _323  and  _326
REMARK  132  A    between atoms: _326  and  _327
REMARK  133  A    between atoms: _330  and  _332
REMARK  134  A    between atoms: _332  and  _333
REMARK  135  A    between atoms: _332  and  _335
REMARK  136  A    between atoms: _335  and  _336
REMARK  137  A    between atoms: _339  and  _341
REMARK  138  A    between atoms: _341  and  _342
REMARK  139  A    between atoms: _341  and  _344
REMARK  140  A    between atoms: _344  and  _345
REMARK  141  A    between atoms: _348  and  _350
REMARK  142  A    between atoms: _350  and  _351
REMARK  143  A    between atoms: _354  and  _356
REMARK  144  A    between atoms: _356  and  _357
REMARK  145  A    between atoms: _356  and  _359
REMARK  146  A    between atoms: _359  and  _360
REMARK  147  A    between atoms: _365  and  _366
REMARK  148  A    between atoms: _368  and  _370
REMARK  149  A    between atoms: _370  and  _371
REMARK  150  A    between atoms: _370  and  _373
REMARK  151  A    between atoms: _373  and  _374
REMARK  152  A    between atoms: _374  and  _375
REMARK  153  A    between atoms: _378  and  _380
REMARK  154  A    between atoms: _380  and  _381
REMARK  155  A    between atoms: _380  and  _383
REMARK  156  A    between atoms: _383  and  _384
REMARK  157  A    between atoms: _387  and  _389
REMARK  158  A    between atoms: _389  and  _390
REMARK  159  A    between atoms: _393  and  _395
REMARK  160  A    between atoms: _395  and  _396
REMARK  161  A    between atoms: _395  and  _398
REMARK  162  A    between atoms: _398  and  _399
REMARK  163  A    between atoms: _399  and  _400
REMARK  164  A    between atoms: _400  and  _401
REMARK  165  A    between atoms: _410  and  _412
REMARK  166  A    between atoms: _412  and  _413
REMARK  167  A    between atoms: _412  and  _415
REMARK  168  A    between atoms: _415  and  _416
REMARK  169  A    between atoms: _419  and  _421
REMARK  170  A    between atoms: _421  and  _422
REMARK  171  A    between atoms: _421  and  _424
REMARK  172  A    between atoms: _424  and  _425
REMARK  173  A    between atoms: _435  and  _437
REMARK  174  A    between atoms: _437  and  _438
REMARK  175  A    between atoms: _437  and  _440
REMARK  176  A    between atoms: _440  and  _441
REMARK  177  A    between atoms: _446  and  _447
REMARK  178  A    between atoms: _449  and  _451
REMARK  179  A    between atoms: _451  and  _452
REMARK  180  A    between atoms: _451  and  _454
REMARK  181  A    between atoms: _454  and  _455
REMARK  182  A    between atoms: _455  and  _456
REMARK  183  A    between atoms: _456  and  _457
REMARK  184  A    between atoms: _457  and  _458
REMARK  185  A    between atoms: _462  and  _464
REMARK  186  A    between atoms: _464  and  _465
REMARK  187  A    between atoms: _464  and  _467
REMARK  188  A    between atoms: _467  and  _468
REMARK  189  A    between atoms: _471  and  _473
REMARK  190  A    between atoms: _473  and  _474
REMARK  191  A    between atoms: _473  and  _476
REMARK  192  A    between atoms: _479  and  _481
REMARK  193  A    between atoms: _481  and  _482
REMARK  194  A    between atoms: _481  and  _484
REMARK  195  A    between atoms: _484  and  _485
REMARK  196  A    between atoms: _488  and  _490
REMARK  197  A    between atoms: _490  and  _491
REMARK  198  A    between atoms: _490  and  _493
REMARK  199  A    between atoms: _493  and  _494
REMARK  200  A    between atoms: _496  and  _498
REMARK  201  A    between atoms: _498  and  _499
REMARK  202  A    between atoms: _501  and  _503
REMARK  203  A    between atoms: _503  and  _504
REMARK  204  A    between atoms: _503  and  _506
REMARK  205  A    between atoms: _506  and  _507
REMARK  206  A    between atoms: _510  and  _512
REMARK  207  A    between atoms: _512  and  _513
REMARK  208  A    between atoms: _512  and  _515
REMARK  209  A    between atoms: _515  and  _516
REMARK  210  A    between atoms: _519  and  _521
REMARK  211  A    between atoms: _521  and  _522
REMARK  212  A    between atoms: _521  and  _524
REMARK  213  A    between atoms: _524  and  _525
REMARK  214  A    between atoms: _530  and  _532
REMARK  215  A    between atoms: _532  and  _533
REMARK  216  A    between atoms: _532  and  _535
REMARK  217  A    between atoms: _535  and  _536
REMARK  218  A    between atoms: _539  and  _541
REMARK  219  A    between atoms: _541  and  _542
REMARK  220  A    between atoms: _541  and  _544
REMARK  221  A    between atoms: _544  and  _545
REMARK  222  A    between atoms: _545  and  _546
REMARK  223  A    between atoms: _546  and  _547
REMARK  224  A    between atoms: _556  and  _558
REMARK  225  A    between atoms: _558  and  _559
REMARK  226  A    between atoms: _558  and  _561
REMARK  227  A    between atoms: _561  and  _562
REMARK  228  A    between atoms: _562  and  _563
REMARK  229  A    between atoms: _563  and  _564
REMARK  230  A    between atoms: _573  and  _575
REMARK  231  A    between atoms: _575  and  _576
REMARK  232  A    between atoms: _575  and  _578
REMARK  233  A    between atoms: _578  and  _579
REMARK  234  A    between atoms: _581  and  _583
REMARK  235  A    between atoms: _583  and  _584
REMARK  236  A    between atoms: _583  and  _586
REMARK  237  A    between atoms: _586  and  _587
REMARK  238  A    between atoms: _587  and  _588
REMARK  239  A    between atoms: _593  and  _595
REMARK  240  A    between atoms: _595  and  _596
REMARK  241  A    between atoms: _595  and  _598
REMARK  242  A    between atoms: _598  and  _599
REMARK  243  A    between atoms: _601  and  _603
REMARK  244  A    between atoms: _603  and  _604
REMARK  245  A    between atoms: _603  and  _606
REMARK  246  A    between atoms: _606  and  _607
REMARK  247  A    between atoms: _610  and  _612
REMARK  248  A    between atoms: _612  and  _613
REMARK  249  A    between atoms: _612  and  _615
REMARK  250  A    between atoms: _615  and  _616
REMARK  251  A    between atoms: _619  and  _621
REMARK  252  A    between atoms: _621  and  _622
REMARK  253  A    between atoms: _621  and  _624
REMARK  254  A    between atoms: _627  and  _629
REMARK  255  A    between atoms: _629  and  _630
REMARK  256  A    between atoms: _632  and  _634
REMARK  257  A    between atoms: _634  and  _635
REMARK  258  A    between atoms: _638  and  _640
REMARK  259  A    between atoms: _640  and  _641
REMARK  260  A    between atoms: _640  and  _643
REMARK  261  A    between atoms: _646  and  _648
REMARK  262  A    between atoms: _648  and  _649
REMARK  263  A    between atoms: _648  and  _651
REMARK  264  A    between atoms: _651  and  _652
REMARK  265  A    between atoms: _652  and  _653
REMARK  266  A    between atoms: _655  and  _657
REMARK  267  A    between atoms: _657  and  _658
REMARK  268  A    between atoms: _657  and  _660
REMARK  269  A    between atoms: _660  and  _661
REMARK  270  A    between atoms: _661  and  _662
REMARK                            x       y       z     vdW  Elec       q    Type
REMARK                         _______ _______ _______ _____ _____    ______ ____
ROOT
ATOM      1  C   THR A   1      -3.590   7.651  31.371  0.00  0.00    +0.241 C 
ATOM      2  O   THR A   1      -4.485   7.406  32.177  0.00  0.00    -0.274 OA
ATOM      3  N   VAL A   2      -2.520   6.878  31.245  0.00  0.00    -0.298 N 
ATOM      4  H   VAL A   2      -1.823   7.073  30.498  0.00  0.00    +0.150 HD
ENDROOT
BRANCH   1   5
ATOM      5  CA  THR A   1      -3.688   8.857  30.442  0.00  0.00    +0.172 C 
BRANCH   5   6
ATOM      6  N   THR A   1      -5.055   9.021  29.968  0.00  0.00    -0.236 NA
ATOM      7  H   THR A   1      -5.647   9.778  30.367  0.00  0.00    +0.142 HD
ENDBRANCH   5   6
BRANCH   5   8
ATOM      8  CB  THR A   1      -3.228  10.113  31.229  0.00  0.00    +0.135 C 
ATOM      9  CG2 THR A   1      -1.889   9.861  31.916  0.00  0.00    +0.034 C 
BRANCH   8  10
ATOM     10  OG1 THR A   1      -3.089  11.219  30.333  0.00  0.00    -0.383 OA
ATOM     11  HG1 THR A   1      -2.796  12.018  30.839  0.00  0.00    +0.210 HD
ENDBRANCH   8  10
ENDBRANCH   5   8
ENDBRANCH   1   5
BRANCH   3  12
ATOM     12  CA  VAL A   2      -2.319   5.756  32.151  0.00  0.00    +0.137 C 
BRANCH  12  13
ATOM     13  CB  VAL A   2      -2.395   4.376  31.458  0.00  0.00    +0.026 C 
ATOM     14  CG2 VAL A   2      -2.218   3.285  32.519  0.00  0.00    +0.002 C 
ATOM     15  CG1 VAL A   2      -3.734   4.206  30.718  0.00  0.00    +0.002 C 
ENDBRANCH  12  13
BRANCH  12  16
ATOM     16  C   VAL A   2      -0.919   5.910  32.757  0.00  0.00    +0.227 C 
ATOM     17  O   VAL A   2       0.094   5.842  32.051  0.00  0.00    -0.286 OA
ENDBRANCH  12  16
ENDBRANCH   3  12
TORSDOF 7
REMARK  Name = ../refined-set-2016/2g94/2g94_pocket.pdb
REMARK  270 active torsions:
REMARK  status: ('A' for Active; 'I' for Inactive)
REMARK    1  A    between atoms: _1  and  _3
REMARK    2  A    between atoms: _3  and  _4
REMARK    3  A    between atoms: _3  and  _6
REMARK    4  A    between atoms: _6  and  _7
REMARK    5  A    between atoms: _7  and  _8
REMARK    6  A    between atoms: _8  and  _9
REMARK    7  A    between atoms: _9  and  _10
REMARK    8  A    between atoms: _14  and  _16
REMARK    9  A    between atoms: _16  and  _17
REMARK   10  A    between atoms: _16  and  _19
REMARK   11  A    between atoms: _19  and  _20
REMARK   12  A    between atoms: _22  and  _24
REMARK   13  A    between atoms: _24  and  _25
REMARK   14  A    between atoms: _27  and  _29
REMARK   15  A    between atoms: _29  and  _30
REMARK   16  A    between atoms: _29  and  _32
REMARK   17  A    between atoms: _32  and  _33
REMARK   18  A    between atoms: _33  and  _34
REMARK   19  A    between atoms: _39  and  _41
REMARK   20  A    between atoms: _41  and  _42
REMARK   21  A    between atoms: _44  and  _46
REMARK   22  A    between atoms: _46  and  _47
REMARK   23  A    between atoms: _46  and  _49
REMARK   24  A    between atoms: _49  and  _50
REMARK   25  A    between atoms: _55  and  _56
REMARK   26  A    between atoms: _58  and  _60
REMARK   27  A    between atoms: _60  and  _61
REMARK   28  A    between atoms: _60  and  _63
REMARK   29  A    between atoms: _63  and  _64
REMARK   30  A    between atoms: _69  and  _70
REMARK   31  A    between atoms: _72  and  _74
REMARK   32  A    between atoms: _74  and  _75
REMARK   33  A    between atoms: _74  and  _77
REMARK   34  A    between atoms: _77  and  _78
REMARK   35  A    between atoms: _81  and  _83
REMARK   36  A    between atoms: _83  and  _84
REMARK   37  A    between atoms: _83  and  _86
REMARK   38  A    between atoms: _89  and  _91
REMARK   39  A    between atoms: _91  and  _92
REMARK   40  A    between atoms: _91  and  _94
REMARK   41  A    between atoms: _94  and  _95
REMARK   42  A    between atoms: _98  and  _100
REMARK   43  A    between atoms: _100  and  _101
REMARK   44  A    between atoms: _100  and  _103
REMARK   45  A    between atoms: _103  and  _104
REMARK   46  A    between atoms: _107  and  _109
REMARK   47  A    between atoms: _109  and  _110
REMARK   48  A    between atoms: _112  and  _114
REMARK   49  A    between atoms: _114  and  _115
REMARK   50  A    between atoms: _114  and  _117
REMARK   51  A    between atoms: _117  and  _118
REMARK   52  A    between atoms: _120  and  _122
REMARK   53  A    between atoms: _122  and  _123
REMARK   54  A    between atoms: _122  and  _125
REMARK   55  A    between atoms: _125  and  _126
REMARK   56  A    between atoms: _128  and  _130
REMARK   57  A    between atoms: _130  and  _131
REMARK   58  A    between atoms: _130  and  _133
REMARK   59  A    between atoms: _133  and  _134
REMARK   60  A    between atoms: _139  and  _141
REMARK   61  A    between atoms: _141  and  _142
REMARK   62  A    between atoms: _141  and  _144
REMARK   63  A    between atoms: _144  and  _145
REMARK   64  A    between atoms: _150  and  _151
REMARK   65  A    between atoms: _153  and  _155
REMARK   66  A    between atoms: _155  and  _156
REMARK   67  A    between atoms: _155  and  _158
REMARK   68  A    between atoms: _162  and  _163
REMARK   69  A    between atoms: _168  and  _170
REMARK   70  A    between atoms: _170  and  _171
REMARK   71  A    between atoms: _170  and  _173
REMARK   72  A    between atoms: _173  and  _174
REMARK   73  A    between atoms: _179  and  _180
REMARK   74  A    between atoms: _182  and  _184
REMARK   75  A    between atoms: _184  and  _185
REMARK   76  A    between atoms: _184  and  _187
REMARK   77  A    between atoms: _187  and  _188
REMARK   78  A    between atoms: _191  and  _193
REMARK   79  A    between atoms: _193  and  _194
REMARK   80  A    between atoms: _193  and  _196
REMARK   81  A    between atoms: _196  and  _197
REMARK   82  A    between atoms: _197  and  _198
REMARK   83  A    between atoms: _203  and  _205
REMARK   84  A    between atoms: _205  and  _206
REMARK   85  A    between atoms: _208  and  _210
REMARK   86  A    between atoms: _210  and  _211
REMARK   87  A    between atoms: _210  and  _213
REMARK   88  A    between atoms: _213  and  _214
REMARK   89  A    between atoms: _214  and  _215
REMARK   90  A    between atoms: _215  and  _216
REMARK   91  A    between atoms: _216  and  _217
REMARK   92  A    between atoms: _221  and  _223
REMARK   93  A    between atoms: _223  and  _224
REMARK   94  A    between atoms: _223  and  _226
REMARK   95  A    between atoms: _226  and  _227
REMARK   96  A    between atoms: _237  and  _239
REMARK   97  A    between atoms: _239  and  _240
REMARK   98  A    between atoms: _239  and  _242
REMARK   99  A    between atoms: _242  and  _243
REMARK  100  A    between atoms: _246  and  _248
REMARK  101  A    between atoms: _248  and  _249
REMARK  102  A    between atoms: _248  and  _251
REMARK  103  A    between atoms: _251  and  _252
REMARK  104  A    between atoms: _252  and  _253
REMARK  105  A    between atoms: _253  and  _254
REMARK  106  A    between atoms: _254  and  _255
REMARK  107  A    between atoms: _259  and  _261
REMARK  108  A    between atoms: _261  and  _262
REMARK  109  A    between atoms: _261  and  _264
REMARK  110  A    between atoms: _264  and  _265
REMARK  111  A    between atoms: _271  and  _273
REMARK  112  A    between atoms: _273  and  _274
REMARK  113  A    between atoms: _273  and  _276
REMARK  114  A    between atoms: _276  and  _277
REMARK  115  A    between atoms: _283  and  _285
REMARK  116  A    between atoms: _285  and  _286
REMARK  117  A    between atoms: _285  and  _288
REMARK  118  A    between atoms: _288  and  _289
REMARK  119  A    between atoms: _292  and  _294
REMARK  120  A    between atoms: _294  and  _295
REMARK  121  A    between atoms: _294  and  _297
REMARK  122  A    between atoms: _297  and  _298
REMARK  123  A    between atoms: _300  and  _302
REMARK  124  A    between atoms: _302  and  _303
REMARK  125  A    between atoms: _302  and  _305
REMARK  126  A    between atoms: _305  and  _306
REMARK  127  A    between atoms: _316  and  _318
REMARK  128  A    between atoms: _318  and  _319
REMARK  129  A    between atoms: _321  and  _323
REMARK  130  A    between atoms: _323  and  _324
REMARK  131  A    between atoms: _323  and  _326
REMARK  132  A    between atoms: _326  and  _327
REMARK  133  A    between atoms: _330  and  _332
REMARK  134  A    between atoms: _332  and  _333
REMARK  135  A    between atoms: _332  and  _335
REMARK  136  A    between atoms: _335  and  _336
REMARK  137  A    between atoms: _339  and  _341
REMARK  138  A    between atoms: _341  and  _342
REMARK  139  A    between atoms: _341  and  _344
REMARK  140  A    between atoms: _344  and  _345
REMARK  141  A    between atoms: _348  and  _350
REMARK  142  A    between atoms: _350  and  _351
REMARK  143  A    between atoms: _354  and  _356
REMARK  144  A    between atoms: _356  and  _357
REMARK  145  A    between atoms: _356  and  _359
REMARK  146  A    between atoms: _359  and  _360
REMARK  147  A    between atoms: _365  and  _366
REMARK  148  A    between atoms: _368  and  _370
REMARK  149  A    between atoms: _370  and  _371
REMARK  150  A    between atoms: _370  and  _373
REMARK  151  A    between atoms: _373  and  _374
REMARK  152  A    between atoms: _374  and  _375
REMARK  153  A    between atoms: _378  and  _380
REMARK  154  A    between atoms: _380  and  _381
REMARK  155  A    between atoms: _380  and  _383
REMARK  156  A    between atoms: _383  and  _384
REMARK  157  A    between atoms: _387  and  _389
REMARK  158  A    between atoms: _389  and  _390
REMARK  159  A    between atoms: _393  and  _395
REMARK  160  A    between atoms: _395  and  _396
REMARK  161  A    between atoms: _395  and  _398
REMARK  162  A    between atoms: _398  and  _399
REMARK  163  A    between atoms: _399  and  _400
REMARK  164  A    between atoms: _400  and  _401
REMARK  165  A    between atoms: _410  and  _412
REMARK  166  A    between atoms: _412  and  _413
REMARK  167  A    between atoms: _412  and  _415
REMARK  168  A    between atoms: _415  and  _416
REMARK  169  A    between atoms: _419  and  _421
REMARK  170  A    between atoms: _421  and  _422
REMARK  171  A    between atoms: _421  and  _424
REMARK  172  A    between atoms: _424  and  _425
REMARK  173  A    between atoms: _435  and  _437
REMARK  174  A    between atoms: _437  and  _438
REMARK  175  A    between atoms: _437  and  _440
REMARK  176  A    between atoms: _440  and  _441
REMARK  177  A    between atoms: _446  and  _447
REMARK  178  A    between atoms: _449  and  _451
REMARK  179  A    between atoms: _451  and  _452
REMARK  180  A    between atoms: _451  and  _454
REMARK  181  A    between atoms: _454  and  _455
REMARK  182  A    between atoms: _455  and  _456
REMARK  183  A    between atoms: _456  and  _457
REMARK  184  A    between atoms: _457  and  _458
REMARK  185  A    between atoms: _462  and  _464
REMARK  186  A    between atoms: _464  and  _465
REMARK  187  A    between atoms: _464  and  _467
REMARK  188  A    between atoms: _467  and  _468
REMARK  189  A    between atoms: _471  and  _473
REMARK  190  A    between atoms: _473  and  _474
REMARK  191  A    between atoms: _473  and  _476
REMARK  192  A    between atoms: _479  and  _481
REMARK  193  A    between atoms: _481  and  _482
REMARK  194  A    between atoms: _481  and  _484
REMARK  195  A    between atoms: _484  and  _485
REMARK  196  A    between atoms: _488  and  _490
REMARK  197  A    between atoms: _490  and  _491
REMARK  198  A    between atoms: _490  and  _493
REMARK  199  A    between atoms: _493  and  _494
REMARK  200  A    between atoms: _496  and  _498
REMARK  201  A    between atoms: _498  and  _499
REMARK  202  A    between atoms: _501  and  _503
REMARK  203  A    between atoms: _503  and  _504
REMARK  204  A    between atoms: _503  and  _506
REMARK  205  A    between atoms: _506  and  _507
REMARK  206  A    between atoms: _510  and  _512
REMARK  207  A    between atoms: _512  and  _513
REMARK  208  A    between atoms: _512  and  _515
REMARK  209  A    between atoms: _515  and  _516
REMARK  210  A    between atoms: _519  and  _521
REMARK  211  A    between atoms: _521  and  _522
REMARK  212  A    between atoms: _521  and  _524
REMARK  213  A    between atoms: _524  and  _525
REMARK  214  A    between atoms: _530  and  _532
REMARK  215  A    between atoms: _532  and  _533
REMARK  216  A    between atoms: _532  and  _535
REMARK  217  A    between atoms: _535  and  _536
REMARK  218  A    between atoms: _539  and  _541
REMARK  219  A    between atoms: _541  and  _542
REMARK  220  A    between atoms: _541  and  _544
REMARK  221  A    between atoms: _544  and  _545
REMARK  222  A    between atoms: _545  and  _546
REMARK  223  A    between atoms: _546  and  _547
REMARK  224  A    between atoms: _556  and  _558
REMARK  225  A    between atoms: _558  and  _559
REMARK  226  A    between atoms: _558  and  _561
REMARK  227  A    between atoms: _561  and  _562
REMARK  228  A    between atoms: _562  and  _563
REMARK  229  A    between atoms: _563  and  _564
REMARK  230  A    between atoms: _573  and  _575
REMARK  231  A    between atoms: _575  and  _576
REMARK  232  A    between atoms: _575  and  _578
REMARK  233  A    between atoms: _578  and  _579
REMARK  234  A    between atoms: _581  and  _583
REMARK  235  A    between atoms: _583  and  _584
REMARK  236  A    between atoms: _583  and  _586
REMARK  237  A    between atoms: _586  and  _587
REMARK  238  A    between atoms: _587  and  _588
REMARK  239  A    between atoms: _593  and  _595
REMARK  240  A    between atoms: _595  and  _596
REMARK  241  A    between atoms: _595  and  _598
REMARK  242  A    between atoms: _598  and  _599
REMARK  243  A    between atoms: _601  and  _603
REMARK  244  A    between atoms: _603  and  _604
REMARK  245  A    between atoms: _603  and  _606
REMARK  246  A    between atoms: _606  and  _607
REMARK  247  A    between atoms: _610  and  _612
REMARK  248  A    between atoms: _612  and  _613
REMARK  249  A    between atoms: _612  and  _615
REMARK  250  A    between atoms: _615  and  _616
REMARK  251  A    between atoms: _619  and  _621
REMARK  252  A    between atoms: _621  and  _622
REMARK  253  A    between atoms: _621  and  _624
REMARK  254  A    between atoms: _627  and  _629
REMARK  255  A    between atoms: _629  and  _630
REMARK  256  A    between atoms: _632  and  _634
REMARK  257  A    between atoms: _634  and  _635
REMARK  258  A    between atoms: _638  and  _640
REMARK  259  A    between atoms: _640  and  _641
REMARK  260  A    between atoms: _640  and  _643
REMARK  261  A    between atoms: _646  and  _648
REMARK  262  A    between atoms: _648  and  _649
REMARK  263  A    between atoms: _648  and  _651
REMARK  264  A    between atoms: _651  and  _652
REMARK  265  A    between atoms: _652  and  _653
REMARK  266  A    between atoms: _655  and  _657
REMARK  267  A    between atoms: _657  and  _658
REMARK  268  A    between atoms: _657  and  _660
REMARK  269  A    between atoms: _660  and  _661
REMARK  270  A    between atoms: _661  and  _662
REMARK                            x       y       z     vdW  Elec       q    Type
REMARK                         _______ _______ _______ _____ _____    ______ ____
ROOT
ATOM      1  C   ALA A   2       6.191   2.402  35.620  0.00  0.00    +0.241 C 
ATOM      2  O   ALA A   2       7.036   2.676  36.472  0.00  0.00    -0.273 OA
ATOM      3  N   VAL A   3       6.170   2.992  34.426  0.00  0.00    -0.298 N 
ATOM      4  H   VAL A   3       5.452   2.712  33.727  0.00  0.00    +0.150 HD
ENDROOT
BRANCH   1   5
ATOM      5  CA  ALA A   2       5.118   1.350  35.909  0.00  0.00    +0.149 C 
ATOM      6  CB  ALA A   2       5.655  -0.072  35.609  0.00  0.00    +0.031 C 
BRANCH   5   9
ATOM      7  C   GLY A   1       3.178   2.705  35.352  0.00  0.00    +0.240 C 
ATOM      8  O   GLY A   1       3.539   3.605  36.105  0.00  0.00    -0.274 OA
ATOM      9  N   ALA A   2       3.870   1.581  35.183  0.00  0.00    -0.297 N 
ATOM     10  H   ALA A   2       3.518   0.856  34.525  0.00  0.00    +0.150 HD
BRANCH   7  11
ATOM     11  CA  GLY A   1       1.895   2.836  34.560  0.00  0.00    +0.169 C 
BRANCH  11  12
ATOM     12  N   GLY A   1       1.499   4.209  34.319  0.00  0.00    -0.236 NA
ATOM     13  H   GLY A   1       1.823   4.685  33.453  0.00  0.00    +0.142 HD
ENDBRANCH  11  12
ENDBRANCH   7  11
ENDBRANCH   5   9
ENDBRANCH   1   5
BRANCH   3  14
ATOM     14  CA  VAL A   3       7.147   4.032  34.084  0.00  0.00    +0.137 C 
BRANCH  14  15
ATOM     15  CB  VAL A   3       6.887   4.639  32.682  0.00  0.00    +0.026 C 
ATOM     16  CG2 VAL A   3       7.576   6.005  32.551  0.00  0.00    +0.002 C 
ATOM     17  CG1 VAL A   3       7.421   3.704  31.625  0.00  0.00    +0.002 C 
ENDBRANCH  14  15
BRANCH  14  18
ATOM     18  C   VAL A   3       7.071   5.146  35.112  0.00  0.00    +0.227 C 
ATOM     19  O   VAL A   3       8.082   5.779  35.448  0.00  0.00    -0.286 OA
ENDBRANCH  14  18
ENDBRANCH   3  14
TORSDOF 7
REMARK  Name = ../refined-set-2016/2g94/2g94_pocket.pdb
REMARK  270 active torsions:
REMARK  status: ('A' for Active; 'I' for Inactive)
REMARK    1  A    between atoms: _1  and  _3
REMARK    2  A    between atoms: _3  and  _4
REMARK    3  A    between atoms: _3  and  _6
REMARK    4  A    between atoms: _6  and  _7
REMARK    5  A    between atoms: _7  and  _8
REMARK    6  A    between atoms: _8  and  _9
REMARK    7  A    between atoms: _9  and  _10
REMARK    8  A    between atoms: _14  and  _16
REMARK    9  A    between atoms: _16  and  _17
REMARK   10  A    between atoms: _16  and  _19
REMARK   11  A    between atoms: _19  and  _20
REMARK   12  A    between atoms: _22  and  _24
REMARK   13  A    between atoms: _24  and  _25
REMARK   14  A    between atoms: _27  and  _29
REMARK   15  A    between atoms: _29  and  _30
REMARK   16  A    between atoms: _29  and  _32
REMARK   17  A    between atoms: _32  and  _33
REMARK   18  A    between atoms: _33  and  _34
REMARK   19  A    between atoms: _39  and  _41
REMARK   20  A    between atoms: _41  and  _42
REMARK   21  A    between atoms: _44  and  _46
REMARK   22  A    between atoms: _46  and  _47
REMARK   23  A    between atoms: _46  and  _49
REMARK   24  A    between atoms: _49  and  _50
REMARK   25  A    between atoms: _55  and  _56
REMARK   26  A    between atoms: _58  and  _60
REMARK   27  A    between atoms: _60  and  _61
REMARK   28  A    between atoms: _60  and  _63
REMARK   29  A    between atoms: _63  and  _64
REMARK   30  A    between atoms: _69  and  _70
REMARK   31  A    between atoms: _72  and  _74
REMARK   32  A    between atoms: _74  and  _75
REMARK   33  A    between atoms: _74  and  _77
REMARK   34  A    between atoms: _77  and  _78
REMARK   35  A    between atoms: _81  and  _83
REMARK   36  A    between atoms: _83  and  _84
REMARK   37  A    between atoms: _83  and  _86
REMARK   38  A    between atoms: _89  and  _91
REMARK   39  A    between atoms: _91  and  _92
REMARK   40  A    between atoms: _91  and  _94
REMARK   41  A    between atoms: _94  and  _95
REMARK   42  A    between atoms: _98  and  _100
REMARK   43  A    between atoms: _100  and  _101
REMARK   44  A    between atoms: _100  and  _103
REMARK   45  A    between atoms: _103  and  _104
REMARK   46  A    between atoms: _107  and  _109
REMARK   47  A    between atoms: _109  and  _110
REMARK   48  A    between atoms: _112  and  _114
REMARK   49  A    between atoms: _114  and  _115
REMARK   50  A    between atoms: _114  and  _117
REMARK   51  A    between atoms: _117  and  _118
REMARK   52  A    between atoms: _120  and  _122
REMARK   53  A    between atoms: _122  and  _123
REMARK   54  A    between atoms: _122  and  _125
REMARK   55  A    between atoms: _125  and  _126
REMARK   56  A    between atoms: _128  and  _130
REMARK   57  A    between atoms: _130  and  _131
REMARK   58  A    between atoms: _130  and  _133
REMARK   59  A    between atoms: _133  and  _134
REMARK   60  A    between atoms: _139  and  _141
REMARK   61  A    between atoms: _141  and  _142
REMARK   62  A    between atoms: _141  and  _144
REMARK   63  A    between atoms: _144  and  _145
REMARK   64  A    between atoms: _150  and  _151
REMARK   65  A    between atoms: _153  and  _155
REMARK   66  A    between atoms: _155  and  _156
REMARK   67  A    between atoms: _155  and  _158
REMARK   68  A    between atoms: _162  and  _163
REMARK   69  A    between atoms: _168  and  _170
REMARK   70  A    between atoms: _170  and  _171
REMARK   71  A    between atoms: _170  and  _173
REMARK   72  A    between atoms: _173  and  _174
REMARK   73  A    between atoms: _179  and  _180
REMARK   74  A    between atoms: _182  and  _184
REMARK   75  A    between atoms: _184  and  _185
REMARK   76  A    between atoms: _184  and  _187
REMARK   77  A    between atoms: _187  and  _188
REMARK   78  A    between atoms: _191  and  _193
REMARK   79  A    between atoms: _193  and  _194
REMARK   80  A    between atoms: _193  and  _196
REMARK   81  A    between atoms: _196  and  _197
REMARK   82  A    between atoms: _197  and  _198
REMARK   83  A    between atoms: _203  and  _205
REMARK   84  A    between atoms: _205  and  _206
REMARK   85  A    between atoms: _208  and  _210
REMARK   86  A    between atoms: _210  and  _211
REMARK   87  A    between atoms: _210  and  _213
REMARK   88  A    between atoms: _213  and  _214
REMARK   89  A    between atoms: _214  and  _215
REMARK   90  A    between atoms: _215  and  _216
REMARK   91  A    between atoms: _216  and  _217
REMARK   92  A    between atoms: _221  and  _223
REMARK   93  A    between atoms: _223  and  _224
REMARK   94  A    between atoms: _223  and  _226
REMARK   95  A    between atoms: _226  and  _227
REMARK   96  A    between atoms: _237  and  _239
REMARK   97  A    between atoms: _239  and  _240
REMARK   98  A    between atoms: _239  and  _242
REMARK   99  A    between atoms: _242  and  _243
REMARK  100  A    between atoms: _246  and  _248
REMARK  101  A    between atoms: _248  and  _249
REMARK  102  A    between atoms: _248  and  _251
REMARK  103  A    between atoms: _251  and  _252
REMARK  104  A    between atoms: _252  and  _253
REMARK  105  A    between atoms: _253  and  _254
REMARK  106  A    between atoms: _254  and  _255
REMARK  107  A    between atoms: _259  and  _261
REMARK  108  A    between atoms: _261  and  _262
REMARK  109  A    between atoms: _261  and  _264
REMARK  110  A    between atoms: _264  and  _265
REMARK  111  A    between atoms: _271  and  _273
REMARK  112  A    between atoms: _273  and  _274
REMARK  113  A    between atoms: _273  and  _276
REMARK  114  A    between atoms: _276  and  _277
REMARK  115  A    between atoms: _283  and  _285
REMARK  116  A    between atoms: _285  and  _286
REMARK  117  A    between atoms: _285  and  _288
REMARK  118  A    between atoms: _288  and  _289
REMARK  119  A    between atoms: _292  and  _294
REMARK  120  A    between atoms: _294  and  _295
REMARK  121  A    between atoms: _294  and  _297
REMARK  122  A    between atoms: _297  and  _298
REMARK  123  A    between atoms: _300  and  _302
REMARK  124  A    between atoms: _302  and  _303
REMARK  125  A    between atoms: _302  and  _305
REMARK  126  A    between atoms: _305  and  _306
REMARK  127  A    between atoms: _316  and  _318
REMARK  128  A    between atoms: _318  and  _319
REMARK  129  A    between atoms: _321  and  _323
REMARK  130  A    between atoms: _323  and  _324
REMARK  131  A    between atoms: _323  and  _326
REMARK  132  A    between atoms: _326  and  _327
REMARK  133  A    between atoms: _330  and  _332
REMARK  134  A    between atoms: _332  and  _333
REMARK  135  A    between atoms: _332  and  _335
REMARK  136  A    between atoms: _335  and  _336
REMARK  137  A    between atoms: _339  and  _341
REMARK  138  A    between atoms: _341  and  _342
REMARK  139  A    between atoms: _341  and  _344
REMARK  140  A    between atoms: _344  and  _345
REMARK  141  A    between atoms: _348  and  _350
REMARK  142  A    between atoms: _350  and  _351
REMARK  143  A    between atoms: _354  and  _356
REMARK  144  A    between atoms: _356  and  _357
REMARK  145  A    between atoms: _356  and  _359
REMARK  146  A    between atoms: _359  and  _360
REMARK  147  A    between atoms: _365  and  _366
REMARK  148  A    between atoms: _368  and  _370
REMARK  149  A    between atoms: _370  and  _371
REMARK  150  A    between atoms: _370  and  _373
REMARK  151  A    between atoms: _373  and  _374
REMARK  152  A    between atoms: _374  and  _375
REMARK  153  A    between atoms: _378  and  _380
REMARK  154  A    between atoms: _380  and  _381
REMARK  155  A    between atoms: _380  and  _383
REMARK  156  A    between atoms: _383  and  _384
REMARK  157  A    between atoms: _387  and  _389
REMARK  158  A    between atoms: _389  and  _390
REMARK  159  A    between atoms: _393  and  _395
REMARK  160  A    between atoms: _395  and  _396
REMARK  161  A    between atoms: _395  and  _398
REMARK  162  A    between atoms: _398  and  _399
REMARK  163  A    between atoms: _399  and  _400
REMARK  164  A    between atoms: _400  and  _401
REMARK  165  A    between atoms: _410  and  _412
REMARK  166  A    between atoms: _412  and  _413
REMARK  167  A    between atoms: _412  and  _415
REMARK  168  A    between atoms: _415  and  _416
REMARK  169  A    between atoms: _419  and  _421
REMARK  170  A    between atoms: _421  and  _422
REMARK  171  A    between atoms: _421  and  _424
REMARK  172  A    between atoms: _424  and  _425
REMARK  173  A    between atoms: _435  and  _437
REMARK  174  A    between atoms: _437  and  _438
REMARK  175  A    between atoms: _437  and  _440
REMARK  176  A    between atoms: _440  and  _441
REMARK  177  A    between atoms: _446  and  _447
REMARK  178  A    between atoms: _449  and  _451
REMARK  179  A    between atoms: _451  and  _452
REMARK  180  A    between atoms: _451  and  _454
REMARK  181  A    between atoms: _454  and  _455
REMARK  182  A    between atoms: _455  and  _456
REMARK  183  A    between atoms: _456  and  _457
REMARK  184  A    between atoms: _457  and  _458
REMARK  185  A    between atoms: _462  and  _464
REMARK  186  A    between atoms: _464  and  _465
REMARK  187  A    between atoms: _464  and  _467
REMARK  188  A    between atoms: _467  and  _468
REMARK  189  A    between atoms: _471  and  _473
REMARK  190  A    between atoms: _473  and  _474
REMARK  191  A    between atoms: _473  and  _476
REMARK  192  A    between atoms: _479  and  _481
REMARK  193  A    between atoms: _481  and  _482
REMARK  194  A    between atoms: _481  and  _484
REMARK  195  A    between atoms: _484  and  _485
REMARK  196  A    between atoms: _488  and  _490
REMARK  197  A    between atoms: _490  and  _491
REMARK  198  A    between atoms: _490  and  _493
REMARK  199  A    between atoms: _493  and  _494
REMARK  200  A    between atoms: _496  and  _498
REMARK  201  A    between atoms: _498  and  _499
REMARK  202  A    between atoms: _501  and  _503
REMARK  203  A    between atoms: _503  and  _504
REMARK  204  A    between atoms: _503  and  _506
REMARK  205  A    between atoms: _506  and  _507
REMARK  206  A    between atoms: _510  and  _512
REMARK  207  A    between atoms: _512  and  _513
REMARK  208  A    between atoms: _512  and  _515
REMARK  209  A    between atoms: _515  and  _516
REMARK  210  A    between atoms: _519  and  _521
REMARK  211  A    between atoms: _521  and  _522
REMARK  212  A    between atoms: _521  and  _524
REMARK  213  A    between atoms: _524  and  _525
REMARK  214  A    between atoms: _530  and  _532
REMARK  215  A    between atoms: _532  and  _533
REMARK  216  A    between atoms: _532  and  _535
REMARK  217  A    between atoms: _535  and  _536
REMARK  218  A    between atoms: _539  and  _541
REMARK  219  A    between atoms: _541  and  _542
REMARK  220  A    between atoms: _541  and  _544
REMARK  221  A    between atoms: _544  and  _545
REMARK  222  A    between atoms: _545  and  _546
REMARK  223  A    between atoms: _546  and  _547
REMARK  224  A    between atoms: _556  and  _558
REMARK  225  A    between atoms: _558  and  _559
REMARK  226  A    between atoms: _558  and  _561
REMARK  227  A    between atoms: _561  and  _562
REMARK  228  A    between atoms: _562  and  _563
REMARK  229  A    between atoms: _563  and  _564
REMARK  230  A    between atoms: _573  and  _575
REMARK  231  A    between atoms: _575  and  _576
REMARK  232  A    between atoms: _575  and  _578
REMARK  233  A    between atoms: _578  and  _579
REMARK  234  A    between atoms: _581  and  _583
REMARK  235  A    between atoms: _583  and  _584
REMARK  236  A    between atoms: _583  and  _586
REMARK  237  A    between atoms: _586  and  _587
REMARK  238  A    between atoms: _587  and  _588
REMARK  239  A    between atoms: _593  and  _595
REMARK  240  A    between atoms: _595  and  _596
REMARK  241  A    between atoms: _595  and  _598
REMARK  242  A    between atoms: _598  and  _599
REMARK  243  A    between atoms: _601  and  _603
REMARK  244  A    between atoms: _603  and  _604
REMARK  245  A    between atoms: _603  and  _606
REMARK  246  A    between atoms: _606  and  _607
REMARK  247  A    between atoms: _610  and  _612
REMARK  248  A    between atoms: _612  and  _613
REMARK  249  A    between atoms: _612  and  _615
REMARK  250  A    between atoms: _615  and  _616
REMARK  251  A    between atoms: _619  and  _621
REMARK  252  A    between atoms: _621  and  _622
REMARK  253  A    between atoms: _621  and  _624
REMARK  254  A    between atoms: _627  and  _629
REMARK  255  A    between atoms: _629  and  _630
REMARK  256  A    between atoms: _632  and  _634
REMARK  257  A    between atoms: _634  and  _635
REMARK  258  A    between atoms: _638  and  _640
REMARK  259  A    between atoms: _640  and  _641
REMARK  260  A    between atoms: _640  and  _643
REMARK  261  A    between atoms: _646  and  _648
REMARK  262  A    between atoms: _648  and  _649
REMARK  263  A    between atoms: _648  and  _651
REMARK  264  A    between atoms: _651  and  _652
REMARK  265  A    between atoms: _652  and  _653
REMARK  266  A    between atoms: _655  and  _657
REMARK  267  A    between atoms: _657  and  _658
REMARK  268  A    between atoms: _657  and  _660
REMARK  269  A    between atoms: _660  and  _661
REMARK  270  A    between atoms: _661  and  _662
REMARK                            x       y       z     vdW  Elec       q    Type
REMARK                         _______ _______ _______ _____ _____    ______ ____
ROOT
ATOM      1  C   MET A   1       6.679   3.564  40.041  0.00  0.00    +0.238 C 
ATOM      2  O   MET A   1       6.940   3.545  41.247  0.00  0.00    -0.274 OA
ATOM      3  N   GLU A   2       7.561   3.179  39.122  0.00  0.00    -0.298 N 
ATOM      4  H   GLU A   2       7.308   3.195  38.113  0.00  0.00    +0.150 HD
ENDROOT
BRANCH   1   5
ATOM      5  CA  MET A   1       5.309   4.051  39.567  0.00  0.00    +0.146 C 
BRANCH   5   6
ATOM      6  N   MET A   1       5.233   4.665  38.244  0.00  0.00    -0.238 NA
ATOM      7  H   MET A   1       4.669   4.215  37.495  0.00  0.00    +0.142 HD
ENDBRANCH   5   6
BRANCH   5   8
ATOM      8  CB  MET A   1       4.265   2.928  39.673  0.00  0.00    +0.038 C 
BRANCH   8   9
ATOM      9  CG  MET A   1       2.841   3.475  39.529  0.00  0.00    +0.060 C 
BRANCH   9  10
ATOM     10  SD  MET A   1       1.545   2.289  39.834  0.00  0.00    -0.139 S 
ATOM     11  CE  MET A   1       1.635   2.185  41.655  0.00  0.00    +0.069 C 
ENDBRANCH   9  10
ENDBRANCH   8   9
ENDBRANCH   5   8
ENDBRANCH   1   5
BRANCH   3  12
ATOM     12  CA  GLU A   2       8.893   2.731  39.544  0.00  0.00    +0.137 C 
BRANCH  12  13
ATOM     13  C   GLU A   2       9.720   3.923  40.031  0.00  0.00    +0.227 C 
ATOM     14  O   GLU A   2      10.787   3.758  40.636  0.00  0.00    -0.286 OA
ENDBRANCH  12  13
BRANCH  12  15
ATOM     15  CB  GLU A   2       9.615   2.011  38.393  0.00  0.00    +0.039 C 
BRANCH  15  16
ATOM     16  CG  GLU A   2       8.996   0.642  38.036  0.00  0.00    +0.116 C 
BRANCH  16  17
ATOM     17  CD  GLU A   2       9.670  -0.015  36.828  0.00  0.00    +0.365 C 
ATOM     18  OE2 GLU A   2       9.324  -1.170  36.494  0.00  0.00    -0.246 OA
ATOM     19  OE1 GLU A   2      10.549   0.619  36.222  0.00  0.00    -0.246 OA
ENDBRANCH  16  17
ENDBRANCH  15  16
ENDBRANCH  12  15
ENDBRANCH   3  12
TORSDOF 10
REMARK  Name = ../refined-set-2016/2g94/2g94_pocket.pdb
REMARK  270 active torsions:
REMARK  status: ('A' for Active; 'I' for Inactive)
REMARK    1  A    between atoms: _1  and  _3
REMARK    2  A    between atoms: _3  and  _4
REMARK    3  A    between atoms: _3  and  _6
REMARK    4  A    between atoms: _6  and  _7
REMARK    5  A    between atoms: _7  and  _8
REMARK    6  A    between atoms: _8  and  _9
REMARK    7  A    between atoms: _9  and  _10
REMARK    8  A    between atoms: _14  and  _16
REMARK    9  A    between atoms: _16  and  _17
REMARK   10  A    between atoms: _16  and  _19
REMARK   11  A    between atoms: _19  and  _20
REMARK   12  A    between atoms: _22  and  _24
REMARK   13  A    between atoms: _24  and  _25
REMARK   14  A    between atoms: _27  and  _29
REMARK   15  A    between atoms: _29  and  _30
REMARK   16  A    between atoms: _29  and  _32
REMARK   17  A    between atoms: _32  and  _33
REMARK   18  A    between atoms: _33  and  _34
REMARK   19  A    between atoms: _39  and  _41
REMARK   20  A    between atoms: _41  and  _42
REMARK   21  A    between atoms: _44  and  _46
REMARK   22  A    between atoms: _46  and  _47
REMARK   23  A    between atoms: _46  and  _49
REMARK   24  A    between atoms: _49  and  _50
REMARK   25  A    between atoms: _55  and  _56
REMARK   26  A    between atoms: _58  and  _60
REMARK   27  A    between atoms: _60  and  _61
REMARK   28  A    between atoms: _60  and  _63
REMARK   29  A    between atoms: _63  and  _64
REMARK   30  A    between atoms: _69  and  _70
REMARK   31  A    between atoms: _72  and  _74
REMARK   32  A    between atoms: _74  and  _75
REMARK   33  A    between atoms: _74  and  _77
REMARK   34  A    between atoms: _77  and  _78
REMARK   35  A    between atoms: _81  and  _83
REMARK   36  A    between atoms: _83  and  _84
REMARK   37  A    between atoms: _83  and  _86
REMARK   38  A    between atoms: _89  and  _91
REMARK   39  A    between atoms: _91  and  _92
REMARK   40  A    between atoms: _91  and  _94
REMARK   41  A    between atoms: _94  and  _95
REMARK   42  A    between atoms: _98  and  _100
REMARK   43  A    between atoms: _100  and  _101
REMARK   44  A    between atoms: _100  and  _103
REMARK   45  A    between atoms: _103  and  _104
REMARK   46  A    between atoms: _107  and  _109
REMARK   47  A    between atoms: _109  and  _110
REMARK   48  A    between atoms: _112  and  _114
REMARK   49  A    between atoms: _114  and  _115
REMARK   50  A    between atoms: _114  and  _117
REMARK   51  A    between atoms: _117  and  _118
REMARK   52  A    between atoms: _120  and  _122
REMARK   53  A    between atoms: _122  and  _123
REMARK   54  A    between atoms: _122  and  _125
REMARK   55  A    between atoms: _125  and  _126
REMARK   56  A    between atoms: _128  and  _130
REMARK   57  A    between atoms: _130  and  _131
REMARK   58  A    between atoms: _130  and  _133
REMARK   59  A    between atoms: _133  and  _134
REMARK   60  A    between atoms: _139  and  _141
REMARK   61  A    between atoms: _141  and  _142
REMARK   62  A    between atoms: _141  and  _144
REMARK   63  A    between atoms: _144  and  _145
REMARK   64  A    between atoms: _150  and  _151
REMARK   65  A    between atoms: _153  and  _155
REMARK   66  A    between atoms: _155  and  _156
REMARK   67  A    between atoms: _155  and  _158
REMARK   68  A    between atoms: _162  and  _163
REMARK   69  A    between atoms: _168  and  _170
REMARK   70  A    between atoms: _170  and  _171
REMARK   71  A    between atoms: _170  and  _173
REMARK   72  A    between atoms: _173  and  _174
REMARK   73  A    between atoms: _179  and  _180
REMARK   74  A    between atoms: _182  and  _184
REMARK   75  A    between atoms: _184  and  _185
REMARK   76  A    between atoms: _184  and  _187
REMARK   77  A    between atoms: _187  and  _188
REMARK   78  A    between atoms: _191  and  _193
REMARK   79  A    between atoms: _193  and  _194
REMARK   80  A    between atoms: _193  and  _196
REMARK   81  A    between atoms: _196  and  _197
REMARK   82  A    between atoms: _197  and  _198
REMARK   83  A    between atoms: _203  and  _205
REMARK   84  A    between atoms: _205  and  _206
REMARK   85  A    between atoms: _208  and  _210
REMARK   86  A    between atoms: _210  and  _211
REMARK   87  A    between atoms: _210  and  _213
REMARK   88  A    between atoms: _213  and  _214
REMARK   89  A    between atoms: _214  and  _215
REMARK   90  A    between atoms: _215  and  _216
REMARK   91  A    between atoms: _216  and  _217
REMARK   92  A    between atoms: _221  and  _223
REMARK   93  A    between atoms: _223  and  _224
REMARK   94  A    between atoms: _223  and  _226
REMARK   95  A    between atoms: _226  and  _227
REMARK   96  A    between atoms: _237  and  _239
REMARK   97  A    between atoms: _239  and  _240
REMARK   98  A    between atoms: _239  and  _242
REMARK   99  A    between atoms: _242  and  _243
REMARK  100  A    between atoms: _246  and  _248
REMARK  101  A    between atoms: _248  and  _249
REMARK  102  A    between atoms: _248  and  _251
REMARK  103  A    between atoms: _251  and  _252
REMARK  104  A    between atoms: _252  and  _253
REMARK  105  A    between atoms: _253  and  _254
REMARK  106  A    between atoms: _254  and  _255
REMARK  107  A    between atoms: _259  and  _261
REMARK  108  A    between atoms: _261  and  _262
REMARK  109  A    between atoms: _261  and  _264
REMARK  110  A    between atoms: _264  and  _265
REMARK  111  A    between atoms: _271  and  _273
REMARK  112  A    between atoms: _273  and  _274
REMARK  113  A    between atoms: _273  and  _276
REMARK  114  A    between atoms: _276  and  _277
REMARK  115  A    between atoms: _283  and  _285
REMARK  116  A    between atoms: _285  and  _286
REMARK  117  A    between atoms: _285  and  _288
REMARK  118  A    between atoms: _288  and  _289
REMARK  119  A    between atoms: _292  and  _294
REMARK  120  A    between atoms: _294  and  _295
REMARK  121  A    between atoms: _294  and  _297
REMARK  122  A    between atoms: _297  and  _298
REMARK  123  A    between atoms: _300  and  _302
REMARK  124  A    between atoms: _302  and  _303
REMARK  125  A    between atoms: _302  and  _305
REMARK  126  A    between atoms: _305  and  _306
REMARK  127  A    between atoms: _316  and  _318
REMARK  128  A    between atoms: _318  and  _319
REMARK  129  A    between atoms: _321  and  _323
REMARK  130  A    between atoms: _323  and  _324
REMARK  131  A    between atoms: _323  and  _326
REMARK  132  A    between atoms: _326  and  _327
REMARK  133  A    between atoms: _330  and  _332
REMARK  134  A    between atoms: _332  and  _333
REMARK  135  A    between atoms: _332  and  _335
REMARK  136  A    between atoms: _335  and  _336
REMARK  137  A    between atoms: _339  and  _341
REMARK  138  A    between atoms: _341  and  _342
REMARK  139  A    between atoms: _341  and  _344
REMARK  140  A    between atoms: _344  and  _345
REMARK  141  A    between atoms: _348  and  _350
REMARK  142  A    between atoms: _350  and  _351
REMARK  143  A    between atoms: _354  and  _356
REMARK  144  A    between atoms: _356  and  _357
REMARK  145  A    between atoms: _356  and  _359
REMARK  146  A    between atoms: _359  and  _360
REMARK  147  A    between atoms: _365  and  _366
REMARK  148  A    between atoms: _368  and  _370
REMARK  149  A    between atoms: _370  and  _371
REMARK  150  A    between atoms: _370  and  _373
REMARK  151  A    between atoms: _373  and  _374
REMARK  152  A    between atoms: _374  and  _375
REMARK  153  A    between atoms: _378  and  _380
REMARK  154  A    between atoms: _380  and  _381
REMARK  155  A    between atoms: _380  and  _383
REMARK  156  A    between atoms: _383  and  _384
REMARK  157  A    between atoms: _387  and  _389
REMARK  158  A    between atoms: _389  and  _390
REMARK  159  A    between atoms: _393  and  _395
REMARK  160  A    between atoms: _395  and  _396
REMARK  161  A    between atoms: _395  and  _398
REMARK  162  A    between atoms: _398  and  _399
REMARK  163  A    between atoms: _399  and  _400
REMARK  164  A    between atoms: _400  and  _401
REMARK  165  A    between atoms: _410  and  _412
REMARK  166  A    between atoms: _412  and  _413
REMARK  167  A    between atoms: _412  and  _415
REMARK  168  A    between atoms: _415  and  _416
REMARK  169  A    between atoms: _419  and  _421
REMARK  170  A    between atoms: _421  and  _422
REMARK  171  A    between atoms: _421  and  _424
REMARK  172  A    between atoms: _424  and  _425
REMARK  173  A    between atoms: _435  and  _437
REMARK  174  A    between atoms: _437  and  _438
REMARK  175  A    between atoms: _437  and  _440
REMARK  176  A    between atoms: _440  and  _441
REMARK  177  A    between atoms: _446  and  _447
REMARK  178  A    between atoms: _449  and  _451
REMARK  179  A    between atoms: _451  and  _452
REMARK  180  A    between atoms: _451  and  _454
REMARK  181  A    between atoms: _454  and  _455
REMARK  182  A    between atoms: _455  and  _456
REMARK  183  A    between atoms: _456  and  _457
REMARK  184  A    between atoms: _457  and  _458
REMARK  185  A    between atoms: _462  and  _464
REMARK  186  A    between atoms: _464  and  _465
REMARK  187  A    between atoms: _464  and  _467
REMARK  188  A    between atoms: _467  and  _468
REMARK  189  A    between atoms: _471  and  _473
REMARK  190  A    between atoms: _473  and  _474
REMARK  191  A    between atoms: _473  and  _476
REMARK  192  A    between atoms: _479  and  _481
REMARK  193  A    between atoms: _481  and  _482
REMARK  194  A    between atoms: _481  and  _484
REMARK  195  A    between atoms: _484  and  _485
REMARK  196  A    between atoms: _488  and  _490
REMARK  197  A    between atoms: _490  and  _491
REMARK  198  A    between atoms: _490  and  _493
REMARK  199  A    between atoms: _493  and  _494
REMARK  200  A    between atoms: _496  and  _498
REMARK  201  A    between atoms: _498  and  _499
REMARK  202  A    between atoms: _501  and  _503
REMARK  203  A    between atoms: _503  and  _504
REMARK  204  A    between atoms: _503  and  _506
REMARK  205  A    between atoms: _506  and  _507
REMARK  206  A    between atoms: _510  and  _512
REMARK  207  A    between atoms: _512  and  _513
REMARK  208  A    between atoms: _512  and  _515
REMARK  209  A    between atoms: _515  and  _516
REMARK  210  A    between atoms: _519  and  _521
REMARK  211  A    between atoms: _521  and  _522
REMARK  212  A    between atoms: _521  and  _524
REMARK  213  A    between atoms: _524  and  _525
REMARK  214  A    between atoms: _530  and  _532
REMARK  215  A    between atoms: _532  and  _533
REMARK  216  A    between atoms: _532  and  _535
REMARK  217  A    between atoms: _535  and  _536
REMARK  218  A    between atoms: _539  and  _541
REMARK  219  A    between atoms: _541  and  _542
REMARK  220  A    between atoms: _541  and  _544
REMARK  221  A    between atoms: _544  and  _545
REMARK  222  A    between atoms: _545  and  _546
REMARK  223  A    between atoms: _546  and  _547
REMARK  224  A    between atoms: _556  and  _558
REMARK  225  A    between atoms: _558  and  _559
REMARK  226  A    between atoms: _558  and  _561
REMARK  227  A    between atoms: _561  and  _562
REMARK  228  A    between atoms: _562  and  _563
REMARK  229  A    between atoms: _563  and  _564
REMARK  230  A    between atoms: _573  and  _575
REMARK  231  A    between atoms: _575  and  _576
REMARK  232  A    between atoms: _575  and  _578
REMARK  233  A    between atoms: _578  and  _579
REMARK  234  A    between atoms: _581  and  _583
REMARK  235  A    between atoms: _583  and  _584
REMARK  236  A    between atoms: _583  and  _586
REMARK  237  A    between atoms: _586  and  _587
REMARK  238  A    between atoms: _587  and  _588
REMARK  239  A    between atoms: _593  and  _595
REMARK  240  A    between atoms: _595  and  _596
REMARK  241  A    between atoms: _595  and  _598
REMARK  242  A    between atoms: _598  and  _599
REMARK  243  A    between atoms: _601  and  _603
REMARK  244  A    between atoms: _603  and  _604
REMARK  245  A    between atoms: _603  and  _606
REMARK  246  A    between atoms: _606  and  _607
REMARK  247  A    between atoms: _610  and  _612
REMARK  248  A    between atoms: _612  and  _613
REMARK  249  A    between atoms: _612  and  _615
REMARK  250  A    between atoms: _615  and  _616
REMARK  251  A    between atoms: _619  and  _621
REMARK  252  A    between atoms: _621  and  _622
REMARK  253  A    between atoms: _621  and  _624
REMARK  254  A    between atoms: _627  and  _629
REMARK  255  A    between atoms: _629  and  _630
REMARK  256  A    between atoms: _632  and  _634
REMARK  257  A    between atoms: _634  and  _635
REMARK  258  A    between atoms: _638  and  _640
REMARK  259  A    between atoms: _640  and  _641
REMARK  260  A    between atoms: _640  and  _643
REMARK  261  A    between atoms: _646  and  _648
REMARK  262  A    between atoms: _648  and  _649
REMARK  263  A    between atoms: _648  and  _651
REMARK  264  A    between atoms: _651  and  _652
REMARK  265  A    between atoms: _652  and  _653
REMARK  266  A    between atoms: _655  and  _657
REMARK  267  A    between atoms: _657  and  _658
REMARK  268  A    between atoms: _657  and  _660
REMARK  269  A    between atoms: _660  and  _661
REMARK  270  A    between atoms: _661  and  _662
REMARK                            x       y       z     vdW  Elec       q    Type
REMARK                         _______ _______ _______ _____ _____    ______ ____
ROOT
ATOM      1  O   HOH     1      -9.196  -7.916  37.287  0.00  0.00    +0.000 OA
ENDROOT
TORSDOF 0
REMARK  Name = ../refined-set-2016/2g94/2g94_pocket.pdb
REMARK  270 active torsions:
REMARK  status: ('A' for Active; 'I' for Inactive)
REMARK    1  A    between atoms: _1  and  _3
REMARK    2  A    between atoms: _3  and  _4
REMARK    3  A    between atoms: _3  and  _6
REMARK    4  A    between atoms: _6  and  _7
REMARK    5  A    between atoms: _7  and  _8
REMARK    6  A    between atoms: _8  and  _9
REMARK    7  A    between atoms: _9  and  _10
REMARK    8  A    between atoms: _14  and  _16
REMARK    9  A    between atoms: _16  and  _17
REMARK   10  A    between atoms: _16  and  _19
REMARK   11  A    between atoms: _19  and  _20
REMARK   12  A    between atoms: _22  and  _24
REMARK   13  A    between atoms: _24  and  _25
REMARK   14  A    between atoms: _27  and  _29
REMARK   15  A    between atoms: _29  and  _30
REMARK   16  A    between atoms: _29  and  _32
REMARK   17  A    between atoms: _32  and  _33
REMARK   18  A    between atoms: _33  and  _34
REMARK   19  A    between atoms: _39  and  _41
REMARK   20  A    between atoms: _41  and  _42
REMARK   21  A    between atoms: _44  and  _46
REMARK   22  A    between atoms: _46  and  _47
REMARK   23  A    between atoms: _46  and  _49
REMARK   24  A    between atoms: _49  and  _50
REMARK   25  A    between atoms: _55  and  _56
REMARK   26  A    between atoms: _58  and  _60
REMARK   27  A    between atoms: _60  and  _61
REMARK   28  A    between atoms: _60  and  _63
REMARK   29  A    between atoms: _63  and  _64
REMARK   30  A    between atoms: _69  and  _70
REMARK   31  A    between atoms: _72  and  _74
REMARK   32  A    between atoms: _74  and  _75
REMARK   33  A    between atoms: _74  and  _77
REMARK   34  A    between atoms: _77  and  _78
REMARK   35  A    between atoms: _81  and  _83
REMARK   36  A    between atoms: _83  and  _84
REMARK   37  A    between atoms: _83  and  _86
REMARK   38  A    between atoms: _89  and  _91
REMARK   39  A    between atoms: _91  and  _92
REMARK   40  A    between atoms: _91  and  _94
REMARK   41  A    between atoms: _94  and  _95
REMARK   42  A    between atoms: _98  and  _100
REMARK   43  A    between atoms: _100  and  _101
REMARK   44  A    between atoms: _100  and  _103
REMARK   45  A    between atoms: _103  and  _104
REMARK   46  A    between atoms: _107  and  _109
REMARK   47  A    between atoms: _109  and  _110
REMARK   48  A    between atoms: _112  and  _114
REMARK   49  A    between atoms: _114  and  _115
REMARK   50  A    between atoms: _114  and  _117
REMARK   51  A    between atoms: _117  and  _118
REMARK   52  A    between atoms: _120  and  _122
REMARK   53  A    between atoms: _122  and  _123
REMARK   54  A    between atoms: _122  and  _125
REMARK   55  A    between atoms: _125  and  _126
REMARK   56  A    between atoms: _128  and  _130
REMARK   57  A    between atoms: _130  and  _131
REMARK   58  A    between atoms: _130  and  _133
REMARK   59  A    between atoms: _133  and  _134
REMARK   60  A    between atoms: _139  and  _141
REMARK   61  A    between atoms: _141  and  _142
REMARK   62  A    between atoms: _141  and  _144
REMARK   63  A    between atoms: _144  and  _145
REMARK   64  A    between atoms: _150  and  _151
REMARK   65  A    between atoms: _153  and  _155
REMARK   66  A    between atoms: _155  and  _156
REMARK   67  A    between atoms: _155  and  _158
REMARK   68  A    between atoms: _162  and  _163
REMARK   69  A    between atoms: _168  and  _170
REMARK   70  A    between atoms: _170  and  _171
REMARK   71  A    between atoms: _170  and  _173
REMARK   72  A    between atoms: _173  and  _174
REMARK   73  A    between atoms: _179  and  _180
REMARK   74  A    between atoms: _182  and  _184
REMARK   75  A    between atoms: _184  and  _185
REMARK   76  A    between atoms: _184  and  _187
REMARK   77  A    between atoms: _187  and  _188
REMARK   78  A    between atoms: _191  and  _193
REMARK   79  A    between atoms: _193  and  _194
REMARK   80  A    between atoms: _193  and  _196
REMARK   81  A    between atoms: _196  and  _197
REMARK   82  A    between atoms: _197  and  _198
REMARK   83  A    between atoms: _203  and  _205
REMARK   84  A    between atoms: _205  and  _206
REMARK   85  A    between atoms: _208  and  _210
REMARK   86  A    between atoms: _210  and  _211
REMARK   87  A    between atoms: _210  and  _213
REMARK   88  A    between atoms: _213  and  _214
REMARK   89  A    between atoms: _214  and  _215
REMARK   90  A    between atoms: _215  and  _216
REMARK   91  A    between atoms: _216  and  _217
REMARK   92  A    between atoms: _221  and  _223
REMARK   93  A    between atoms: _223  and  _224
REMARK   94  A    between atoms: _223  and  _226
REMARK   95  A    between atoms: _226  and  _227
REMARK   96  A    between atoms: _237  and  _239
REMARK   97  A    between atoms: _239  and  _240
REMARK   98  A    between atoms: _239  and  _242
REMARK   99  A    between atoms: _242  and  _243
REMARK  100  A    between atoms: _246  and  _248
REMARK  101  A    between atoms: _248  and  _249
REMARK  102  A    between atoms: _248  and  _251
REMARK  103  A    between atoms: _251  and  _252
REMARK  104  A    between atoms: _252  and  _253
REMARK  105  A    between atoms: _253  and  _254
REMARK  106  A    between atoms: _254  and  _255
REMARK  107  A    between atoms: _259  and  _261
REMARK  108  A    between atoms: _261  and  _262
REMARK  109  A    between atoms: _261  and  _264
REMARK  110  A    between atoms: _264  and  _265
REMARK  111  A    between atoms: _271  and  _273
REMARK  112  A    between atoms: _273  and  _274
REMARK  113  A    between atoms: _273  and  _276
REMARK  114  A    between atoms: _276  and  _277
REMARK  115  A    between atoms: _283  and  _285
REMARK  116  A    between atoms: _285  and  _286
REMARK  117  A    between atoms: _285  and  _288
REMARK  118  A    between atoms: _288  and  _289
REMARK  119  A    between atoms: _292  and  _294
REMARK  120  A    between atoms: _294  and  _295
REMARK  121  A    between atoms: _294  and  _297
REMARK  122  A    between atoms: _297  and  _298
REMARK  123  A    between atoms: _300  and  _302
REMARK  124  A    between atoms: _302  and  _303
REMARK  125  A    between atoms: _302  and  _305
REMARK  126  A    between atoms: _305  and  _306
REMARK  127  A    between atoms: _316  and  _318
REMARK  128  A    between atoms: _318  and  _319
REMARK  129  A    between atoms: _321  and  _323
REMARK  130  A    between atoms: _323  and  _324
REMARK  131  A    between atoms: _323  and  _326
REMARK  132  A    between atoms: _326  and  _327
REMARK  133  A    between atoms: _330  and  _332
REMARK  134  A    between atoms: _332  and  _333
REMARK  135  A    between atoms: _332  and  _335
REMARK  136  A    between atoms: _335  and  _336
REMARK  137  A    between atoms: _339  and  _341
REMARK  138  A    between atoms: _341  and  _342
REMARK  139  A    between atoms: _341  and  _344
REMARK  140  A    between atoms: _344  and  _345
REMARK  141  A    between atoms: _348  and  _350
REMARK  142  A    between atoms: _350  and  _351
REMARK  143  A    between atoms: _354  and  _356
REMARK  144  A    between atoms: _356  and  _357
REMARK  145  A    between atoms: _356  and  _359
REMARK  146  A    between atoms: _359  and  _360
REMARK  147  A    between atoms: _365  and  _366
REMARK  148  A    between atoms: _368  and  _370
REMARK  149  A    between atoms: _370  and  _371
REMARK  150  A    between atoms: _370  and  _373
REMARK  151  A    between atoms: _373  and  _374
REMARK  152  A    between atoms: _374  and  _375
REMARK  153  A    between atoms: _378  and  _380
REMARK  154  A    between atoms: _380  and  _381
REMARK  155  A    between atoms: _380  and  _383
REMARK  156  A    between atoms: _383  and  _384
REMARK  157  A    between atoms: _387  and  _389
REMARK  158  A    between atoms: _389  and  _390
REMARK  159  A    between atoms: _393  and  _395
REMARK  160  A    between atoms: _395  and  _396
REMARK  161  A    between atoms: _395  and  _398
REMARK  162  A    between atoms: _398  and  _399
REMARK  163  A    between atoms: _399  and  _400
REMARK  164  A    between atoms: _400  and  _401
REMARK  165  A    between atoms: _410  and  _412
REMARK  166  A    between atoms: _412  and  _413
REMARK  167  A    between atoms: _412  and  _415
REMARK  168  A    between atoms: _415  and  _416
REMARK  169  A    between atoms: _419  and  _421
REMARK  170  A    between atoms: _421  and  _422
REMARK  171  A    between atoms: _421  and  _424
REMARK  172  A    between atoms: _424  and  _425
REMARK  173  A    between atoms: _435  and  _437
REMARK  174  A    between atoms: _437  and  _438
REMARK  175  A    between atoms: _437  and  _440
REMARK  176  A    between atoms: _440  and  _441
REMARK  177  A    between atoms: _446  and  _447
REMARK  178  A    between atoms: _449  and  _451
REMARK  179  A    between atoms: _451  and  _452
REMARK  180  A    between atoms: _451  and  _454
REMARK  181  A    between atoms: _454  and  _455
REMARK  182  A    between atoms: _455  and  _456
REMARK  183  A    between atoms: _456  and  _457
REMARK  184  A    between atoms: _457  and  _458
REMARK  185  A    between atoms: _462  and  _464
REMARK  186  A    between atoms: _464  and  _465
REMARK  187  A    between atoms: _464  and  _467
REMARK  188  A    between atoms: _467  and  _468
REMARK  189  A    between atoms: _471  and  _473
REMARK  190  A    between atoms: _473  and  _474
REMARK  191  A    between atoms: _473  and  _476
REMARK  192  A    between atoms: _479  and  _481
REMARK  193  A    between atoms: _481  and  _482
REMARK  194  A    between atoms: _481  and  _484
REMARK  195  A    between atoms: _484  and  _485
REMARK  196  A    between atoms: _488  and  _490
REMARK  197  A    between atoms: _490  and  _491
REMARK  198  A    between atoms: _490  and  _493
REMARK  199  A    between atoms: _493  and  _494
REMARK  200  A    between atoms: _496  and  _498
REMARK  201  A    between atoms: _498  and  _499
REMARK  202  A    between atoms: _501  and  _503
REMARK  203  A    between atoms: _503  and  _504
REMARK  204  A    between atoms: _503  and  _506
REMARK  205  A    between atoms: _506  and  _507
REMARK  206  A    between atoms: _510  and  _512
REMARK  207  A    between atoms: _512  and  _513
REMARK  208  A    between atoms: _512  and  _515
REMARK  209  A    between atoms: _515  and  _516
REMARK  210  A    between atoms: _519  and  _521
REMARK  211  A    between atoms: _521  and  _522
REMARK  212  A    between atoms: _521  and  _524
REMARK  213  A    between atoms: _524  and  _525
REMARK  214  A    between atoms: _530  and  _532
REMARK  215  A    between atoms: _532  and  _533
REMARK  216  A    between atoms: _532  and  _535
REMARK  217  A    between atoms: _535  and  _536
REMARK  218  A    between atoms: _539  and  _541
REMARK  219  A    between atoms: _541  and  _542
REMARK  220  A    between atoms: _541  and  _544
REMARK  221  A    between atoms: _544  and  _545
REMARK  222  A    between atoms: _545  and  _546
REMARK  223  A    between atoms: _546  and  _547
REMARK  224  A    between atoms: _556  and  _558
REMARK  225  A    between atoms: _558  and  _559
REMARK  226  A    between atoms: _558  and  _561
REMARK  227  A    between atoms: _561  and  _562
REMARK  228  A    between atoms: _562  and  _563
REMARK  229  A    between atoms: _563  and  _564
REMARK  230  A    between atoms: _573  and  _575
REMARK  231  A    between atoms: _575  and  _576
REMARK  232  A    between atoms: _575  and  _578
REMARK  233  A    between atoms: _578  and  _579
REMARK  234  A    between atoms: _581  and  _583
REMARK  235  A    between atoms: _583  and  _584
REMARK  236  A    between atoms: _583  and  _586
REMARK  237  A    between atoms: _586  and  _587
REMARK  238  A    between atoms: _587  and  _588
REMARK  239  A    between atoms: _593  and  _595
REMARK  240  A    between atoms: _595  and  _596
REMARK  241  A    between atoms: _595  and  _598
REMARK  242  A    between atoms: _598  and  _599
REMARK  243  A    between atoms: _601  and  _603
REMARK  244  A    between atoms: _603  and  _604
REMARK  245  A    between atoms: _603  and  _606
REMARK  246  A    between atoms: _606  and  _607
REMARK  247  A    between atoms: _610  and  _612
REMARK  248  A    between atoms: _612  and  _613
REMARK  249  A    between atoms: _612  and  _615
REMARK  250  A    between atoms: _615  and  _616
REMARK  251  A    between atoms: _619  and  _621
REMARK  252  A    between atoms: _621  and  _622
REMARK  253  A    between atoms: _621  and  _624
REMARK  254  A    between atoms: _627  and  _629
REMARK  255  A    between atoms: _629  and  _630
REMARK  256  A    between atoms: _632  and  _634
REMARK  257  A    between atoms: _634  and  _635
REMARK  258  A    between atoms: _638  and  _640
REMARK  259  A    between atoms: _640  and  _641
REMARK  260  A    between atoms: _640  and  _643
REMARK  261  A    between atoms: _646  and  _648
REMARK  262  A    between atoms: _648  and  _649
REMARK  263  A    between atoms: _648  and  _651
REMARK  264  A    between atoms: _651  and  _652
REMARK  265  A    between atoms: _652  and  _653
REMARK  266  A    between atoms: _655  and  _657
REMARK  267  A    between atoms: _657  and  _658
REMARK  268  A    between atoms: _657  and  _660
REMARK  269  A    between atoms: _660  and  _661
REMARK  270  A    between atoms: _661  and  _662
REMARK                            x       y       z     vdW  Elec       q    Type
REMARK                         _______ _______ _______ _____ _____    ______ ____
ROOT
ATOM      1  O   HOH     1       1.955  -5.298  38.166  0.00  0.00    +0.000 OA
ENDROOT
TORSDOF 0
REMARK  Name = ../refined-set-2016/2g94/2g94_pocket.pdb
REMARK  270 active torsions:
REMARK  status: ('A' for Active; 'I' for Inactive)
REMARK    1  A    between atoms: _1  and  _3
REMARK    2  A    between atoms: _3  and  _4
REMARK    3  A    between atoms: _3  and  _6
REMARK    4  A    between atoms: _6  and  _7
REMARK    5  A    between atoms: _7  and  _8
REMARK    6  A    between atoms: _8  and  _9
REMARK    7  A    between atoms: _9  and  _10
REMARK    8  A    between atoms: _14  and  _16
REMARK    9  A    between atoms: _16  and  _17
REMARK   10  A    between atoms: _16  and  _19
REMARK   11  A    between atoms: _19  and  _20
REMARK   12  A    between atoms: _22  and  _24
REMARK   13  A    between atoms: _24  and  _25
REMARK   14  A    between atoms: _27  and  _29
REMARK   15  A    between atoms: _29  and  _30
REMARK   16  A    between atoms: _29  and  _32
REMARK   17  A    between atoms: _32  and  _33
REMARK   18  A    between atoms: _33  and  _34
REMARK   19  A    between atoms: _39  and  _41
REMARK   20  A    between atoms: _41  and  _42
REMARK   21  A    between atoms: _44  and  _46
REMARK   22  A    between atoms: _46  and  _47
REMARK   23  A    between atoms: _46  and  _49
REMARK   24  A    between atoms: _49  and  _50
REMARK   25  A    between atoms: _55  and  _56
REMARK   26  A    between atoms: _58  and  _60
REMARK   27  A    between atoms: _60  and  _61
REMARK   28  A    between atoms: _60  and  _63
REMARK   29  A    between atoms: _63  and  _64
REMARK   30  A    between atoms: _69  and  _70
REMARK   31  A    between atoms: _72  and  _74
REMARK   32  A    between atoms: _74  and  _75
REMARK   33  A    between atoms: _74  and  _77
REMARK   34  A    between atoms: _77  and  _78
REMARK   35  A    between atoms: _81  and  _83
REMARK   36  A    between atoms: _83  and  _84
REMARK   37  A    between atoms: _83  and  _86
REMARK   38  A    between atoms: _89  and  _91
REMARK   39  A    between atoms: _91  and  _92
REMARK   40  A    between atoms: _91  and  _94
REMARK   41  A    between atoms: _94  and  _95
REMARK   42  A    between atoms: _98  and  _100
REMARK   43  A    between atoms: _100  and  _101
REMARK   44  A    between atoms: _100  and  _103
REMARK   45  A    between atoms: _103  and  _104
REMARK   46  A    between atoms: _107  and  _109
REMARK   47  A    between atoms: _109  and  _110
REMARK   48  A    between atoms: _112  and  _114
REMARK   49  A    between atoms: _114  and  _115
REMARK   50  A    between atoms: _114  and  _117
REMARK   51  A    between atoms: _117  and  _118
REMARK   52  A    between atoms: _120  and  _122
REMARK   53  A    between atoms: _122  and  _123
REMARK   54  A    between atoms: _122  and  _125
REMARK   55  A    between atoms: _125  and  _126
REMARK   56  A    between atoms: _128  and  _130
REMARK   57  A    between atoms: _130  and  _131
REMARK   58  A    between atoms: _130  and  _133
REMARK   59  A    between atoms: _133  and  _134
REMARK   60  A    between atoms: _139  and  _141
REMARK   61  A    between atoms: _141  and  _142
REMARK   62  A    between atoms: _141  and  _144
REMARK   63  A    between atoms: _144  and  _145
REMARK   64  A    between atoms: _150  and  _151
REMARK   65  A    between atoms: _153  and  _155
REMARK   66  A    between atoms: _155  and  _156
REMARK   67  A    between atoms: _155  and  _158
REMARK   68  A    between atoms: _162  and  _163
REMARK   69  A    between atoms: _168  and  _170
REMARK   70  A    between atoms: _170  and  _171
REMARK   71  A    between atoms: _170  and  _173
REMARK   72  A    between atoms: _173  and  _174
REMARK   73  A    between atoms: _179  and  _180
REMARK   74  A    between atoms: _182  and  _184
REMARK   75  A    between atoms: _184  and  _185
REMARK   76  A    between atoms: _184  and  _187
REMARK   77  A    between atoms: _187  and  _188
REMARK   78  A    between atoms: _191  and  _193
REMARK   79  A    between atoms: _193  and  _194
REMARK   80  A    between atoms: _193  and  _196
REMARK   81  A    between atoms: _196  and  _197
REMARK   82  A    between atoms: _197  and  _198
REMARK   83  A    between atoms: _203  and  _205
REMARK   84  A    between atoms: _205  and  _206
REMARK   85  A    between atoms: _208  and  _210
REMARK   86  A    between atoms: _210  and  _211
REMARK   87  A    between atoms: _210  and  _213
REMARK   88  A    between atoms: _213  and  _214
REMARK   89  A    between atoms: _214  and  _215
REMARK   90  A    between atoms: _215  and  _216
REMARK   91  A    between atoms: _216  and  _217
REMARK   92  A    between atoms: _221  and  _223
REMARK   93  A    between atoms: _223  and  _224
REMARK   94  A    between atoms: _223  and  _226
REMARK   95  A    between atoms: _226  and  _227
REMARK   96  A    between atoms: _237  and  _239
REMARK   97  A    between atoms: _239  and  _240
REMARK   98  A    between atoms: _239  and  _242
REMARK   99  A    between atoms: _242  and  _243
REMARK  100  A    between atoms: _246  and  _248
REMARK  101  A    between atoms: _248  and  _249
REMARK  102  A    between atoms: _248  and  _251
REMARK  103  A    between atoms: _251  and  _252
REMARK  104  A    between atoms: _252  and  _253
REMARK  105  A    between atoms: _253  and  _254
REMARK  106  A    between atoms: _254  and  _255
REMARK  107  A    between atoms: _259  and  _261
REMARK  108  A    between atoms: _261  and  _262
REMARK  109  A    between atoms: _261  and  _264
REMARK  110  A    between atoms: _264  and  _265
REMARK  111  A    between atoms: _271  and  _273
REMARK  112  A    between atoms: _273  and  _274
REMARK  113  A    between atoms: _273  and  _276
REMARK  114  A    between atoms: _276  and  _277
REMARK  115  A    between atoms: _283  and  _285
REMARK  116  A    between atoms: _285  and  _286
REMARK  117  A    between atoms: _285  and  _288
REMARK  118  A    between atoms: _288  and  _289
REMARK  119  A    between atoms: _292  and  _294
REMARK  120  A    between atoms: _294  and  _295
REMARK  121  A    between atoms: _294  and  _297
REMARK  122  A    between atoms: _297  and  _298
REMARK  123  A    between atoms: _300  and  _302
REMARK  124  A    between atoms: _302  and  _303
REMARK  125  A    between atoms: _302  and  _305
REMARK  126  A    between atoms: _305  and  _306
REMARK  127  A    between atoms: _316  and  _318
REMARK  128  A    between atoms: _318  and  _319
REMARK  129  A    between atoms: _321  and  _323
REMARK  130  A    between atoms: _323  and  _324
REMARK  131  A    between atoms: _323  and  _326
REMARK  132  A    between atoms: _326  and  _327
REMARK  133  A    between atoms: _330  and  _332
REMARK  134  A    between atoms: _332  and  _333
REMARK  135  A    between atoms: _332  and  _335
REMARK  136  A    between atoms: _335  and  _336
REMARK  137  A    between atoms: _339  and  _341
REMARK  138  A    between atoms: _341  and  _342
REMARK  139  A    between atoms: _341  and  _344
REMARK  140  A    between atoms: _344  and  _345
REMARK  141  A    between atoms: _348  and  _350
REMARK  142  A    between atoms: _350  and  _351
REMARK  143  A    between atoms: _354  and  _356
REMARK  144  A    between atoms: _356  and  _357
REMARK  145  A    between atoms: _356  and  _359
REMARK  146  A    between atoms: _359  and  _360
REMARK  147  A    between atoms: _365  and  _366
REMARK  148  A    between atoms: _368  and  _370
REMARK  149  A    between atoms: _370  and  _371
REMARK  150  A    between atoms: _370  and  _373
REMARK  151  A    between atoms: _373  and  _374
REMARK  152  A    between atoms: _374  and  _375
REMARK  153  A    between atoms: _378  and  _380
REMARK  154  A    between atoms: _380  and  _381
REMARK  155  A    between atoms: _380  and  _383
REMARK  156  A    between atoms: _383  and  _384
REMARK  157  A    between atoms: _387  and  _389
REMARK  158  A    between atoms: _389  and  _390
REMARK  159  A    between atoms: _393  and  _395
REMARK  160  A    between atoms: _395  and  _396
REMARK  161  A    between atoms: _395  and  _398
REMARK  162  A    between atoms: _398  and  _399
REMARK  163  A    between atoms: _399  and  _400
REMARK  164  A    between atoms: _400  and  _401
REMARK  165  A    between atoms: _410  and  _412
REMARK  166  A    between atoms: _412  and  _413
REMARK  167  A    between atoms: _412  and  _415
REMARK  168  A    between atoms: _415  and  _416
REMARK  169  A    between atoms: _419  and  _421
REMARK  170  A    between atoms: _421  and  _422
REMARK  171  A    between atoms: _421  and  _424
REMARK  172  A    between atoms: _424  and  _425
REMARK  173  A    between atoms: _435  and  _437
REMARK  174  A    between atoms: _437  and  _438
REMARK  175  A    between atoms: _437  and  _440
REMARK  176  A    between atoms: _440  and  _441
REMARK  177  A    between atoms: _446  and  _447
REMARK  178  A    between atoms: _449  and  _451
REMARK  179  A    between atoms: _451  and  _452
REMARK  180  A    between atoms: _451  and  _454
REMARK  181  A    between atoms: _454  and  _455
REMARK  182  A    between atoms: _455  and  _456
REMARK  183  A    between atoms: _456  and  _457
REMARK  184  A    between atoms: _457  and  _458
REMARK  185  A    between atoms: _462  and  _464
REMARK  186  A    between atoms: _464  and  _465
REMARK  187  A    between atoms: _464  and  _467
REMARK  188  A    between atoms: _467  and  _468
REMARK  189  A    between atoms: _471  and  _473
REMARK  190  A    between atoms: _473  and  _474
REMARK  191  A    between atoms: _473  and  _476
REMARK  192  A    between atoms: _479  and  _481
REMARK  193  A    between atoms: _481  and  _482
REMARK  194  A    between atoms: _481  and  _484
REMARK  195  A    between atoms: _484  and  _485
REMARK  196  A    between atoms: _488  and  _490
REMARK  197  A    between atoms: _490  and  _491
REMARK  198  A    between atoms: _490  and  _493
REMARK  199  A    between atoms: _493  and  _494
REMARK  200  A    between atoms: _496  and  _498
REMARK  201  A    between atoms: _498  and  _499
REMARK  202  A    between atoms: _501  and  _503
REMARK  203  A    between atoms: _503  and  _504
REMARK  204  A    between atoms: _503  and  _506
REMARK  205  A    between atoms: _506  and  _507
REMARK  206  A    between atoms: _510  and  _512
REMARK  207  A    between atoms: _512  and  _513
REMARK  208  A    between atoms: _512  and  _515
REMARK  209  A    between atoms: _515  and  _516
REMARK  210  A    between atoms: _519  and  _521
REMARK  211  A    between atoms: _521  and  _522
REMARK  212  A    between atoms: _521  and  _524
REMARK  213  A    between atoms: _524  and  _525
REMARK  214  A    between atoms: _530  and  _532
REMARK  215  A    between atoms: _532  and  _533
REMARK  216  A    between atoms: _532  and  _535
REMARK  217  A    between atoms: _535  and  _536
REMARK  218  A    between atoms: _539  and  _541
REMARK  219  A    between atoms: _541  and  _542
REMARK  220  A    between atoms: _541  and  _544
REMARK  221  A    between atoms: _544  and  _545
REMARK  222  A    between atoms: _545  and  _546
REMARK  223  A    between atoms: _546  and  _547
REMARK  224  A    between atoms: _556  and  _558
REMARK  225  A    between atoms: _558  and  _559
REMARK  226  A    between atoms: _558  and  _561
REMARK  227  A    between atoms: _561  and  _562
REMARK  228  A    between atoms: _562  and  _563
REMARK  229  A    between atoms: _563  and  _564
REMARK  230  A    between atoms: _573  and  _575
REMARK  231  A    between atoms: _575  and  _576
REMARK  232  A    between atoms: _575  and  _578
REMARK  233  A    between atoms: _578  and  _579
REMARK  234  A    between atoms: _581  and  _583
REMARK  235  A    between atoms: _583  and  _584
REMARK  236  A    between atoms: _583  and  _586
REMARK  237  A    between atoms: _586  and  _587
REMARK  238  A    between atoms: _587  and  _588
REMARK  239  A    between atoms: _593  and  _595
REMARK  240  A    between atoms: _595  and  _596
REMARK  241  A    between atoms: _595  and  _598
REMARK  242  A    between atoms: _598  and  _599
REMARK  243  A    between atoms: _601  and  _603
REMARK  244  A    between atoms: _603  and  _604
REMARK  245  A    between atoms: _603  and  _606
REMARK  246  A    between atoms: _606  and  _607
REMARK  247  A    between atoms: _610  and  _612
REMARK  248  A    between atoms: _612  and  _613
REMARK  249  A    between atoms: _612  and  _615
REMARK  250  A    between atoms: _615  and  _616
REMARK  251  A    between atoms: _619  and  _621
REMARK  252  A    between atoms: _621  and  _622
REMARK  253  A    between atoms: _621  and  _624
REMARK  254  A    between atoms: _627  and  _629
REMARK  255  A    between atoms: _629  and  _630
REMARK  256  A    between atoms: _632  and  _634
REMARK  257  A    between atoms: _634  and  _635
REMARK  258  A    between atoms: _638  and  _640
REMARK  259  A    between atoms: _640  and  _641
REMARK  260  A    between atoms: _640  and  _643
REMARK  261  A    between atoms: _646  and  _648
REMARK  262  A    between atoms: _648  and  _649
REMARK  263  A    between atoms: _648  and  _651
REMARK  264  A    between atoms: _651  and  _652
REMARK  265  A    between atoms: _652  and  _653
REMARK  266  A    between atoms: _655  and  _657
REMARK  267  A    between atoms: _657  and  _658
REMARK  268  A    between atoms: _657  and  _660
REMARK  269  A    between atoms: _660  and  _661
REMARK  270  A    between atoms: _661  and  _662
REMARK                            x       y       z     vdW  Elec       q    Type
REMARK                         _______ _______ _______ _____ _____    ______ ____
ROOT
ATOM      1  O   HOH     1      -2.092  -6.970  28.978  0.00  0.00    +0.000 OA
ENDROOT
TORSDOF 0
REMARK  Name = ../refined-set-2016/2g94/2g94_pocket.pdb
REMARK  270 active torsions:
REMARK  status: ('A' for Active; 'I' for Inactive)
REMARK    1  A    between atoms: _1  and  _3
REMARK    2  A    between atoms: _3  and  _4
REMARK    3  A    between atoms: _3  and  _6
REMARK    4  A    between atoms: _6  and  _7
REMARK    5  A    between atoms: _7  and  _8
REMARK    6  A    between atoms: _8  and  _9
REMARK    7  A    between atoms: _9  and  _10
REMARK    8  A    between atoms: _14  and  _16
REMARK    9  A    between atoms: _16  and  _17
REMARK   10  A    between atoms: _16  and  _19
REMARK   11  A    between atoms: _19  and  _20
REMARK   12  A    between atoms: _22  and  _24
REMARK   13  A    between atoms: _24  and  _25
REMARK   14  A    between atoms: _27  and  _29
REMARK   15  A    between atoms: _29  and  _30
REMARK   16  A    between atoms: _29  and  _32
REMARK   17  A    between atoms: _32  and  _33
REMARK   18  A    between atoms: _33  and  _34
REMARK   19  A    between atoms: _39  and  _41
REMARK   20  A    between atoms: _41  and  _42
REMARK   21  A    between atoms: _44  and  _46
REMARK   22  A    between atoms: _46  and  _47
REMARK   23  A    between atoms: _46  and  _49
REMARK   24  A    between atoms: _49  and  _50
REMARK   25  A    between atoms: _55  and  _56
REMARK   26  A    between atoms: _58  and  _60
REMARK   27  A    between atoms: _60  and  _61
REMARK   28  A    between atoms: _60  and  _63
REMARK   29  A    between atoms: _63  and  _64
REMARK   30  A    between atoms: _69  and  _70
REMARK   31  A    between atoms: _72  and  _74
REMARK   32  A    between atoms: _74  and  _75
REMARK   33  A    between atoms: _74  and  _77
REMARK   34  A    between atoms: _77  and  _78
REMARK   35  A    between atoms: _81  and  _83
REMARK   36  A    between atoms: _83  and  _84
REMARK   37  A    between atoms: _83  and  _86
REMARK   38  A    between atoms: _89  and  _91
REMARK   39  A    between atoms: _91  and  _92
REMARK   40  A    between atoms: _91  and  _94
REMARK   41  A    between atoms: _94  and  _95
REMARK   42  A    between atoms: _98  and  _100
REMARK   43  A    between atoms: _100  and  _101
REMARK   44  A    between atoms: _100  and  _103
REMARK   45  A    between atoms: _103  and  _104
REMARK   46  A    between atoms: _107  and  _109
REMARK   47  A    between atoms: _109  and  _110
REMARK   48  A    between atoms: _112  and  _114
REMARK   49  A    between atoms: _114  and  _115
REMARK   50  A    between atoms: _114  and  _117
REMARK   51  A    between atoms: _117  and  _118
REMARK   52  A    between atoms: _120  and  _122
REMARK   53  A    between atoms: _122  and  _123
REMARK   54  A    between atoms: _122  and  _125
REMARK   55  A    between atoms: _125  and  _126
REMARK   56  A    between atoms: _128  and  _130
REMARK   57  A    between atoms: _130  and  _131
REMARK   58  A    between atoms: _130  and  _133
REMARK   59  A    between atoms: _133  and  _134
REMARK   60  A    between atoms: _139  and  _141
REMARK   61  A    between atoms: _141  and  _142
REMARK   62  A    between atoms: _141  and  _144
REMARK   63  A    between atoms: _144  and  _145
REMARK   64  A    between atoms: _150  and  _151
REMARK   65  A    between atoms: _153  and  _155
REMARK   66  A    between atoms: _155  and  _156
REMARK   67  A    between atoms: _155  and  _158
REMARK   68  A    between atoms: _162  and  _163
REMARK   69  A    between atoms: _168  and  _170
REMARK   70  A    between atoms: _170  and  _171
REMARK   71  A    between atoms: _170  and  _173
REMARK   72  A    between atoms: _173  and  _174
REMARK   73  A    between atoms: _179  and  _180
REMARK   74  A    between atoms: _182  and  _184
REMARK   75  A    between atoms: _184  and  _185
REMARK   76  A    between atoms: _184  and  _187
REMARK   77  A    between atoms: _187  and  _188
REMARK   78  A    between atoms: _191  and  _193
REMARK   79  A    between atoms: _193  and  _194
REMARK   80  A    between atoms: _193  and  _196
REMARK   81  A    between atoms: _196  and  _197
REMARK   82  A    between atoms: _197  and  _198
REMARK   83  A    between atoms: _203  and  _205
REMARK   84  A    between atoms: _205  and  _206
REMARK   85  A    between atoms: _208  and  _210
REMARK   86  A    between atoms: _210  and  _211
REMARK   87  A    between atoms: _210  and  _213
REMARK   88  A    between atoms: _213  and  _214
REMARK   89  A    between atoms: _214  and  _215
REMARK   90  A    between atoms: _215  and  _216
REMARK   91  A    between atoms: _216  and  _217
REMARK   92  A    between atoms: _221  and  _223
REMARK   93  A    between atoms: _223  and  _224
REMARK   94  A    between atoms: _223  and  _226
REMARK   95  A    between atoms: _226  and  _227
REMARK   96  A    between atoms: _237  and  _239
REMARK   97  A    between atoms: _239  and  _240
REMARK   98  A    between atoms: _239  and  _242
REMARK   99  A    between atoms: _242  and  _243
REMARK  100  A    between atoms: _246  and  _248
REMARK  101  A    between atoms: _248  and  _249
REMARK  102  A    between atoms: _248  and  _251
REMARK  103  A    between atoms: _251  and  _252
REMARK  104  A    between atoms: _252  and  _253
REMARK  105  A    between atoms: _253  and  _254
REMARK  106  A    between atoms: _254  and  _255
REMARK  107  A    between atoms: _259  and  _261
REMARK  108  A    between atoms: _261  and  _262
REMARK  109  A    between atoms: _261  and  _264
REMARK  110  A    between atoms: _264  and  _265
REMARK  111  A    between atoms: _271  and  _273
REMARK  112  A    between atoms: _273  and  _274
REMARK  113  A    between atoms: _273  and  _276
REMARK  114  A    between atoms: _276  and  _277
REMARK  115  A    between atoms: _283  and  _285
REMARK  116  A    between atoms: _285  and  _286
REMARK  117  A    between atoms: _285  and  _288
REMARK  118  A    between atoms: _288  and  _289
REMARK  119  A    between atoms: _292  and  _294
REMARK  120  A    between atoms: _294  and  _295
REMARK  121  A    between atoms: _294  and  _297
REMARK  122  A    between atoms: _297  and  _298
REMARK  123  A    between atoms: _300  and  _302
REMARK  124  A    between atoms: _302  and  _303
REMARK  125  A    between atoms: _302  and  _305
REMARK  126  A    between atoms: _305  and  _306
REMARK  127  A    between atoms: _316  and  _318
REMARK  128  A    between atoms: _318  and  _319
REMARK  129  A    between atoms: _321  and  _323
REMARK  130  A    between atoms: _323  and  _324
REMARK  131  A    between atoms: _323  and  _326
REMARK  132  A    between atoms: _326  and  _327
REMARK  133  A    between atoms: _330  and  _332
REMARK  134  A    between atoms: _332  and  _333
REMARK  135  A    between atoms: _332  and  _335
REMARK  136  A    between atoms: _335  and  _336
REMARK  137  A    between atoms: _339  and  _341
REMARK  138  A    between atoms: _341  and  _342
REMARK  139  A    between atoms: _341  and  _344
REMARK  140  A    between atoms: _344  and  _345
REMARK  141  A    between atoms: _348  and  _350
REMARK  142  A    between atoms: _350  and  _351
REMARK  143  A    between atoms: _354  and  _356
REMARK  144  A    between atoms: _356  and  _357
REMARK  145  A    between atoms: _356  and  _359
REMARK  146  A    between atoms: _359  and  _360
REMARK  147  A    between atoms: _365  and  _366
REMARK  148  A    between atoms: _368  and  _370
REMARK  149  A    between atoms: _370  and  _371
REMARK  150  A    between atoms: _370  and  _373
REMARK  151  A    between atoms: _373  and  _374
REMARK  152  A    between atoms: _374  and  _375
REMARK  153  A    between atoms: _378  and  _380
REMARK  154  A    between atoms: _380  and  _381
REMARK  155  A    between atoms: _380  and  _383
REMARK  156  A    between atoms: _383  and  _384
REMARK  157  A    between atoms: _387  and  _389
REMARK  158  A    between atoms: _389  and  _390
REMARK  159  A    between atoms: _393  and  _395
REMARK  160  A    between atoms: _395  and  _396
REMARK  161  A    between atoms: _395  and  _398
REMARK  162  A    between atoms: _398  and  _399
REMARK  163  A    between atoms: _399  and  _400
REMARK  164  A    between atoms: _400  and  _401
REMARK  165  A    between atoms: _410  and  _412
REMARK  166  A    between atoms: _412  and  _413
REMARK  167  A    between atoms: _412  and  _415
REMARK  168  A    between atoms: _415  and  _416
REMARK  169  A    between atoms: _419  and  _421
REMARK  170  A    between atoms: _421  and  _422
REMARK  171  A    between atoms: _421  and  _424
REMARK  172  A    between atoms: _424  and  _425
REMARK  173  A    between atoms: _435  and  _437
REMARK  174  A    between atoms: _437  and  _438
REMARK  175  A    between atoms: _437  and  _440
REMARK  176  A    between atoms: _440  and  _441
REMARK  177  A    between atoms: _446  and  _447
REMARK  178  A    between atoms: _449  and  _451
REMARK  179  A    between atoms: _451  and  _452
REMARK  180  A    between atoms: _451  and  _454
REMARK  181  A    between atoms: _454  and  _455
REMARK  182  A    between atoms: _455  and  _456
REMARK  183  A    between atoms: _456  and  _457
REMARK  184  A    between atoms: _457  and  _458
REMARK  185  A    between atoms: _462  and  _464
REMARK  186  A    between atoms: _464  and  _465
REMARK  187  A    between atoms: _464  and  _467
REMARK  188  A    between atoms: _467  and  _468
REMARK  189  A    between atoms: _471  and  _473
REMARK  190  A    between atoms: _473  and  _474
REMARK  191  A    between atoms: _473  and  _476
REMARK  192  A    between atoms: _479  and  _481
REMARK  193  A    between atoms: _481  and  _482
REMARK  194  A    between atoms: _481  and  _484
REMARK  195  A    between atoms: _484  and  _485
REMARK  196  A    between atoms: _488  and  _490
REMARK  197  A    between atoms: _490  and  _491
REMARK  198  A    between atoms: _490  and  _493
REMARK  199  A    between atoms: _493  and  _494
REMARK  200  A    between atoms: _496  and  _498
REMARK  201  A    between atoms: _498  and  _499
REMARK  202  A    between atoms: _501  and  _503
REMARK  203  A    between atoms: _503  and  _504
REMARK  204  A    between atoms: _503  and  _506
REMARK  205  A    between atoms: _506  and  _507
REMARK  206  A    between atoms: _510  and  _512
REMARK  207  A    between atoms: _512  and  _513
REMARK  208  A    between atoms: _512  and  _515
REMARK  209  A    between atoms: _515  and  _516
REMARK  210  A    between atoms: _519  and  _521
REMARK  211  A    between atoms: _521  and  _522
REMARK  212  A    between atoms: _521  and  _524
REMARK  213  A    between atoms: _524  and  _525
REMARK  214  A    between atoms: _530  and  _532
REMARK  215  A    between atoms: _532  and  _533
REMARK  216  A    between atoms: _532  and  _535
REMARK  217  A    between atoms: _535  and  _536
REMARK  218  A    between atoms: _539  and  _541
REMARK  219  A    between atoms: _541  and  _542
REMARK  220  A    between atoms: _541  and  _544
REMARK  221  A    between atoms: _544  and  _545
REMARK  222  A    between atoms: _545  and  _546
REMARK  223  A    between atoms: _546  and  _547
REMARK  224  A    between atoms: _556  and  _558
REMARK  225  A    between atoms: _558  and  _559
REMARK  226  A    between atoms: _558  and  _561
REMARK  227  A    between atoms: _561  and  _562
REMARK  228  A    between atoms: _562  and  _563
REMARK  229  A    between atoms: _563  and  _564
REMARK  230  A    between atoms: _573  and  _575
REMARK  231  A    between atoms: _575  and  _576
REMARK  232  A    between atoms: _575  and  _578
REMARK  233  A    between atoms: _578  and  _579
REMARK  234  A    between atoms: _581  and  _583
REMARK  235  A    between atoms: _583  and  _584
REMARK  236  A    between atoms: _583  and  _586
REMARK  237  A    between atoms: _586  and  _587
REMARK  238  A    between atoms: _587  and  _588
REMARK  239  A    between atoms: _593  and  _595
REMARK  240  A    between atoms: _595  and  _596
REMARK  241  A    between atoms: _595  and  _598
REMARK  242  A    between atoms: _598  and  _599
REMARK  243  A    between atoms: _601  and  _603
REMARK  244  A    between atoms: _603  and  _604
REMARK  245  A    between atoms: _603  and  _606
REMARK  246  A    between atoms: _606  and  _607
REMARK  247  A    between atoms: _610  and  _612
REMARK  248  A    between atoms: _612  and  _613
REMARK  249  A    between atoms: _612  and  _615
REMARK  250  A    between atoms: _615  and  _616
REMARK  251  A    between atoms: _619  and  _621
REMARK  252  A    between atoms: _621  and  _622
REMARK  253  A    between atoms: _621  and  _624
REMARK  254  A    between atoms: _627  and  _629
REMARK  255  A    between atoms: _629  and  _630
REMARK  256  A    between atoms: _632  and  _634
REMARK  257  A    between atoms: _634  and  _635
REMARK  258  A    between atoms: _638  and  _640
REMARK  259  A    between atoms: _640  and  _641
REMARK  260  A    between atoms: _640  and  _643
REMARK  261  A    between atoms: _646  and  _648
REMARK  262  A    between atoms: _648  and  _649
REMARK  263  A    between atoms: _648  and  _651
REMARK  264  A    between atoms: _651  and  _652
REMARK  265  A    between atoms: _652  and  _653
REMARK  266  A    between atoms: _655  and  _657
REMARK  267  A    between atoms: _657  and  _658
REMARK  268  A    between atoms: _657  and  _660
REMARK  269  A    between atoms: _660  and  _661
REMARK  270  A    between atoms: _661  and  _662
REMARK                            x       y       z     vdW  Elec       q    Type
REMARK                         _______ _______ _______ _____ _____    ______ ____
ROOT
ATOM      1  O   HOH     1      11.110  -3.226  35.965  0.00  0.00    +0.000 OA
ENDROOT
TORSDOF 0
REMARK  Name = ../refined-set-2016/2g94/2g94_pocket.pdb
REMARK  270 active torsions:
REMARK  status: ('A' for Active; 'I' for Inactive)
REMARK    1  A    between atoms: _1  and  _3
REMARK    2  A    between atoms: _3  and  _4
REMARK    3  A    between atoms: _3  and  _6
REMARK    4  A    between atoms: _6  and  _7
REMARK    5  A    between atoms: _7  and  _8
REMARK    6  A    between atoms: _8  and  _9
REMARK    7  A    between atoms: _9  and  _10
REMARK    8  A    between atoms: _14  and  _16
REMARK    9  A    between atoms: _16  and  _17
REMARK   10  A    between atoms: _16  and  _19
REMARK   11  A    between atoms: _19  and  _20
REMARK   12  A    between atoms: _22  and  _24
REMARK   13  A    between atoms: _24  and  _25
REMARK   14  A    between atoms: _27  and  _29
REMARK   15  A    between atoms: _29  and  _30
REMARK   16  A    between atoms: _29  and  _32
REMARK   17  A    between atoms: _32  and  _33
REMARK   18  A    between atoms: _33  and  _34
REMARK   19  A    between atoms: _39  and  _41
REMARK   20  A    between atoms: _41  and  _42
REMARK   21  A    between atoms: _44  and  _46
REMARK   22  A    between atoms: _46  and  _47
REMARK   23  A    between atoms: _46  and  _49
REMARK   24  A    between atoms: _49  and  _50
REMARK   25  A    between atoms: _55  and  _56
REMARK   26  A    between atoms: _58  and  _60
REMARK   27  A    between atoms: _60  and  _61
REMARK   28  A    between atoms: _60  and  _63
REMARK   29  A    between atoms: _63  and  _64
REMARK   30  A    between atoms: _69  and  _70
REMARK   31  A    between atoms: _72  and  _74
REMARK   32  A    between atoms: _74  and  _75
REMARK   33  A    between atoms: _74  and  _77
REMARK   34  A    between atoms: _77  and  _78
REMARK   35  A    between atoms: _81  and  _83
REMARK   36  A    between atoms: _83  and  _84
REMARK   37  A    between atoms: _83  and  _86
REMARK   38  A    between atoms: _89  and  _91
REMARK   39  A    between atoms: _91  and  _92
REMARK   40  A    between atoms: _91  and  _94
REMARK   41  A    between atoms: _94  and  _95
REMARK   42  A    between atoms: _98  and  _100
REMARK   43  A    between atoms: _100  and  _101
REMARK   44  A    between atoms: _100  and  _103
REMARK   45  A    between atoms: _103  and  _104
REMARK   46  A    between atoms: _107  and  _109
REMARK   47  A    between atoms: _109  and  _110
REMARK   48  A    between atoms: _112  and  _114
REMARK   49  A    between atoms: _114  and  _115
REMARK   50  A    between atoms: _114  and  _117
REMARK   51  A    between atoms: _117  and  _118
REMARK   52  A    between atoms: _120  and  _122
REMARK   53  A    between atoms: _122  and  _123
REMARK   54  A    between atoms: _122  and  _125
REMARK   55  A    between atoms: _125  and  _126
REMARK   56  A    between atoms: _128  and  _130
REMARK   57  A    between atoms: _130  and  _131
REMARK   58  A    between atoms: _130  and  _133
REMARK   59  A    between atoms: _133  and  _134
REMARK   60  A    between atoms: _139  and  _141
REMARK   61  A    between atoms: _141  and  _142
REMARK   62  A    between atoms: _141  and  _144
REMARK   63  A    between atoms: _144  and  _145
REMARK   64  A    between atoms: _150  and  _151
REMARK   65  A    between atoms: _153  and  _155
REMARK   66  A    between atoms: _155  and  _156
REMARK   67  A    between atoms: _155  and  _158
REMARK   68  A    between atoms: _162  and  _163
REMARK   69  A    between atoms: _168  and  _170
REMARK   70  A    between atoms: _170  and  _171
REMARK   71  A    between atoms: _170  and  _173
REMARK   72  A    between atoms: _173  and  _174
REMARK   73  A    between atoms: _179  and  _180
REMARK   74  A    between atoms: _182  and  _184
REMARK   75  A    between atoms: _184  and  _185
REMARK   76  A    between atoms: _184  and  _187
REMARK   77  A    between atoms: _187  and  _188
REMARK   78  A    between atoms: _191  and  _193
REMARK   79  A    between atoms: _193  and  _194
REMARK   80  A    between atoms: _193  and  _196
REMARK   81  A    between atoms: _196  and  _197
REMARK   82  A    between atoms: _197  and  _198
REMARK   83  A    between atoms: _203  and  _205
REMARK   84  A    between atoms: _205  and  _206
REMARK   85  A    between atoms: _208  and  _210
REMARK   86  A    between atoms: _210  and  _211
REMARK   87  A    between atoms: _210  and  _213
REMARK   88  A    between atoms: _213  and  _214
REMARK   89  A    between atoms: _214  and  _215
REMARK   90  A    between atoms: _215  and  _216
REMARK   91  A    between atoms: _216  and  _217
REMARK   92  A    between atoms: _221  and  _223
REMARK   93  A    between atoms: _223  and  _224
REMARK   94  A    between atoms: _223  and  _226
REMARK   95  A    between atoms: _226  and  _227
REMARK   96  A    between atoms: _237  and  _239
REMARK   97  A    between atoms: _239  and  _240
REMARK   98  A    between atoms: _239  and  _242
REMARK   99  A    between atoms: _242  and  _243
REMARK  100  A    between atoms: _246  and  _248
REMARK  101  A    between atoms: _248  and  _249
REMARK  102  A    between atoms: _248  and  _251
REMARK  103  A    between atoms: _251  and  _252
REMARK  104  A    between atoms: _252  and  _253
REMARK  105  A    between atoms: _253  and  _254
REMARK  106  A    between atoms: _254  and  _255
REMARK  107  A    between atoms: _259  and  _261
REMARK  108  A    between atoms: _261  and  _262
REMARK  109  A    between atoms: _261  and  _264
REMARK  110  A    between atoms: _264  and  _265
REMARK  111  A    between atoms: _271  and  _273
REMARK  112  A    between atoms: _273  and  _274
REMARK  113  A    between atoms: _273  and  _276
REMARK  114  A    between atoms: _276  and  _277
REMARK  115  A    between atoms: _283  and  _285
REMARK  116  A    between atoms: _285  and  _286
REMARK  117  A    between atoms: _285  and  _288
REMARK  118  A    between atoms: _288  and  _289
REMARK  119  A    between atoms: _292  and  _294
REMARK  120  A    between atoms: _294  and  _295
REMARK  121  A    between atoms: _294  and  _297
REMARK  122  A    between atoms: _297  and  _298
REMARK  123  A    between atoms: _300  and  _302
REMARK  124  A    between atoms: _302  and  _303
REMARK  125  A    between atoms: _302  and  _305
REMARK  126  A    between atoms: _305  and  _306
REMARK  127  A    between atoms: _316  and  _318
REMARK  128  A    between atoms: _318  and  _319
REMARK  129  A    between atoms: _321  and  _323
REMARK  130  A    between atoms: _323  and  _324
REMARK  131  A    between atoms: _323  and  _326
REMARK  132  A    between atoms: _326  and  _327
REMARK  133  A    between atoms: _330  and  _332
REMARK  134  A    between atoms: _332  and  _333
REMARK  135  A    between atoms: _332  and  _335
REMARK  136  A    between atoms: _335  and  _336
REMARK  137  A    between atoms: _339  and  _341
REMARK  138  A    between atoms: _341  and  _342
REMARK  139  A    between atoms: _341  and  _344
REMARK  140  A    between atoms: _344  and  _345
REMARK  141  A    between atoms: _348  and  _350
REMARK  142  A    between atoms: _350  and  _351
REMARK  143  A    between atoms: _354  and  _356
REMARK  144  A    between atoms: _356  and  _357
REMARK  145  A    between atoms: _356  and  _359
REMARK  146  A    between atoms: _359  and  _360
REMARK  147  A    between atoms: _365  and  _366
REMARK  148  A    between atoms: _368  and  _370
REMARK  149  A    between atoms: _370  and  _371
REMARK  150  A    between atoms: _370  and  _373
REMARK  151  A    between atoms: _373  and  _374
REMARK  152  A    between atoms: _374  and  _375
REMARK  153  A    between atoms: _378  and  _380
REMARK  154  A    between atoms: _380  and  _381
REMARK  155  A    between atoms: _380  and  _383
REMARK  156  A    between atoms: _383  and  _384
REMARK  157  A    between atoms: _387  and  _389
REMARK  158  A    between atoms: _389  and  _390
REMARK  159  A    between atoms: _393  and  _395
REMARK  160  A    between atoms: _395  and  _396
REMARK  161  A    between atoms: _395  and  _398
REMARK  162  A    between atoms: _398  and  _399
REMARK  163  A    between atoms: _399  and  _400
REMARK  164  A    between atoms: _400  and  _401
REMARK  165  A    between atoms: _410  and  _412
REMARK  166  A    between atoms: _412  and  _413
REMARK  167  A    between atoms: _412  and  _415
REMARK  168  A    between atoms: _415  and  _416
REMARK  169  A    between atoms: _419  and  _421
REMARK  170  A    between atoms: _421  and  _422
REMARK  171  A    between atoms: _421  and  _424
REMARK  172  A    between atoms: _424  and  _425
REMARK  173  A    between atoms: _435  and  _437
REMARK  174  A    between atoms: _437  and  _438
REMARK  175  A    between atoms: _437  and  _440
REMARK  176  A    between atoms: _440  and  _441
REMARK  177  A    between atoms: _446  and  _447
REMARK  178  A    between atoms: _449  and  _451
REMARK  179  A    between atoms: _451  and  _452
REMARK  180  A    between atoms: _451  and  _454
REMARK  181  A    between atoms: _454  and  _455
REMARK  182  A    between atoms: _455  and  _456
REMARK  183  A    between atoms: _456  and  _457
REMARK  184  A    between atoms: _457  and  _458
REMARK  185  A    between atoms: _462  and  _464
REMARK  186  A    between atoms: _464  and  _465
REMARK  187  A    between atoms: _464  and  _467
REMARK  188  A    between atoms: _467  and  _468
REMARK  189  A    between atoms: _471  and  _473
REMARK  190  A    between atoms: _473  and  _474
REMARK  191  A    between atoms: _473  and  _476
REMARK  192  A    between atoms: _479  and  _481
REMARK  193  A    between atoms: _481  and  _482
REMARK  194  A    between atoms: _481  and  _484
REMARK  195  A    between atoms: _484  and  _485
REMARK  196  A    between atoms: _488  and  _490
REMARK  197  A    between atoms: _490  and  _491
REMARK  198  A    between atoms: _490  and  _493
REMARK  199  A    between atoms: _493  and  _494
REMARK  200  A    between atoms: _496  and  _498
REMARK  201  A    between atoms: _498  and  _499
REMARK  202  A    between atoms: _501  and  _503
REMARK  203  A    between atoms: _503  and  _504
REMARK  204  A    between atoms: _503  and  _506
REMARK  205  A    between atoms: _506  and  _507
REMARK  206  A    between atoms: _510  and  _512
REMARK  207  A    between atoms: _512  and  _513
REMARK  208  A    between atoms: _512  and  _515
REMARK  209  A    between atoms: _515  and  _516
REMARK  210  A    between atoms: _519  and  _521
REMARK  211  A    between atoms: _521  and  _522
REMARK  212  A    between atoms: _521  and  _524
REMARK  213  A    between atoms: _524  and  _525
REMARK  214  A    between atoms: _530  and  _532
REMARK  215  A    between atoms: _532  and  _533
REMARK  216  A    between atoms: _532  and  _535
REMARK  217  A    between atoms: _535  and  _536
REMARK  218  A    between atoms: _539  and  _541
REMARK  219  A    between atoms: _541  and  _542
REMARK  220  A    between atoms: _541  and  _544
REMARK  221  A    between atoms: _544  and  _545
REMARK  222  A    between atoms: _545  and  _546
REMARK  223  A    between atoms: _546  and  _547
REMARK  224  A    between atoms: _556  and  _558
REMARK  225  A    between atoms: _558  and  _559
REMARK  226  A    between atoms: _558  and  _561
REMARK  227  A    between atoms: _561  and  _562
REMARK  228  A    between atoms: _562  and  _563
REMARK  229  A    between atoms: _563  and  _564
REMARK  230  A    between atoms: _573  and  _575
REMARK  231  A    between atoms: _575  and  _576
REMARK  232  A    between atoms: _575  and  _578
REMARK  233  A    between atoms: _578  and  _579
REMARK  234  A    between atoms: _581  and  _583
REMARK  235  A    between atoms: _583  and  _584
REMARK  236  A    between atoms: _583  and  _586
REMARK  237  A    between atoms: _586  and  _587
REMARK  238  A    between atoms: _587  and  _588
REMARK  239  A    between atoms: _593  and  _595
REMARK  240  A    between atoms: _595  and  _596
REMARK  241  A    between atoms: _595  and  _598
REMARK  242  A    between atoms: _598  and  _599
REMARK  243  A    between atoms: _601  and  _603
REMARK  244  A    between atoms: _603  and  _604
REMARK  245  A    between atoms: _603  and  _606
REMARK  246  A    between atoms: _606  and  _607
REMARK  247  A    between atoms: _610  and  _612
REMARK  248  A    between atoms: _612  and  _613
REMARK  249  A    between atoms: _612  and  _615
REMARK  250  A    between atoms: _615  and  _616
REMARK  251  A    between atoms: _619  and  _621
REMARK  252  A    between atoms: _621  and  _622
REMARK  253  A    between atoms: _621  and  _624
REMARK  254  A    between atoms: _627  and  _629
REMARK  255  A    between atoms: _629  and  _630
REMARK  256  A    between atoms: _632  and  _634
REMARK  257  A    between atoms: _634  and  _635
REMARK  258  A    between atoms: _638  and  _640
REMARK  259  A    between atoms: _640  and  _641
REMARK  260  A    between atoms: _640  and  _643
REMARK  261  A    between atoms: _646  and  _648
REMARK  262  A    between atoms: _648  and  _649
REMARK  263  A    between atoms: _648  and  _651
REMARK  264  A    between atoms: _651  and  _652
REMARK  265  A    between atoms: _652  and  _653
REMARK  266  A    between atoms: _655  and  _657
REMARK  267  A    between atoms: _657  and  _658
REMARK  268  A    between atoms: _657  and  _660
REMARK  269  A    between atoms: _660  and  _661
REMARK  270  A    between atoms: _661  and  _662
REMARK                            x       y       z     vdW  Elec       q    Type
REMARK                         _______ _______ _______ _____ _____    ______ ____
ROOT
ATOM      1  O   HOH     1      -6.856   2.739  38.404  0.00  0.00    +0.000 OA
ENDROOT
TORSDOF 0
REMARK  Name = ../refined-set-2016/2g94/2g94_pocket.pdb
REMARK  270 active torsions:
REMARK  status: ('A' for Active; 'I' for Inactive)
REMARK    1  A    between atoms: _1  and  _3
REMARK    2  A    between atoms: _3  and  _4
REMARK    3  A    between atoms: _3  and  _6
REMARK    4  A    between atoms: _6  and  _7
REMARK    5  A    between atoms: _7  and  _8
REMARK    6  A    between atoms: _8  and  _9
REMARK    7  A    between atoms: _9  and  _10
REMARK    8  A    between atoms: _14  and  _16
REMARK    9  A    between atoms: _16  and  _17
REMARK   10  A    between atoms: _16  and  _19
REMARK   11  A    between atoms: _19  and  _20
REMARK   12  A    between atoms: _22  and  _24
REMARK   13  A    between atoms: _24  and  _25
REMARK   14  A    between atoms: _27  and  _29
REMARK   15  A    between atoms: _29  and  _30
REMARK   16  A    between atoms: _29  and  _32
REMARK   17  A    between atoms: _32  and  _33
REMARK   18  A    between atoms: _33  and  _34
REMARK   19  A    between atoms: _39  and  _41
REMARK   20  A    between atoms: _41  and  _42
REMARK   21  A    between atoms: _44  and  _46
REMARK   22  A    between atoms: _46  and  _47
REMARK   23  A    between atoms: _46  and  _49
REMARK   24  A    between atoms: _49  and  _50
REMARK   25  A    between atoms: _55  and  _56
REMARK   26  A    between atoms: _58  and  _60
REMARK   27  A    between atoms: _60  and  _61
REMARK   28  A    between atoms: _60  and  _63
REMARK   29  A    between atoms: _63  and  _64
REMARK   30  A    between atoms: _69  and  _70
REMARK   31  A    between atoms: _72  and  _74
REMARK   32  A    between atoms: _74  and  _75
REMARK   33  A    between atoms: _74  and  _77
REMARK   34  A    between atoms: _77  and  _78
REMARK   35  A    between atoms: _81  and  _83
REMARK   36  A    between atoms: _83  and  _84
REMARK   37  A    between atoms: _83  and  _86
REMARK   38  A    between atoms: _89  and  _91
REMARK   39  A    between atoms: _91  and  _92
REMARK   40  A    between atoms: _91  and  _94
REMARK   41  A    between atoms: _94  and  _95
REMARK   42  A    between atoms: _98  and  _100
REMARK   43  A    between atoms: _100  and  _101
REMARK   44  A    between atoms: _100  and  _103
REMARK   45  A    between atoms: _103  and  _104
REMARK   46  A    between atoms: _107  and  _109
REMARK   47  A    between atoms: _109  and  _110
REMARK   48  A    between atoms: _112  and  _114
REMARK   49  A    between atoms: _114  and  _115
REMARK   50  A    between atoms: _114  and  _117
REMARK   51  A    between atoms: _117  and  _118
REMARK   52  A    between atoms: _120  and  _122
REMARK   53  A    between atoms: _122  and  _123
REMARK   54  A    between atoms: _122  and  _125
REMARK   55  A    between atoms: _125  and  _126
REMARK   56  A    between atoms: _128  and  _130
REMARK   57  A    between atoms: _130  and  _131
REMARK   58  A    between atoms: _130  and  _133
REMARK   59  A    between atoms: _133  and  _134
REMARK   60  A    between atoms: _139  and  _141
REMARK   61  A    between atoms: _141  and  _142
REMARK   62  A    between atoms: _141  and  _144
REMARK   63  A    between atoms: _144  and  _145
REMARK   64  A    between atoms: _150  and  _151
REMARK   65  A    between atoms: _153  and  _155
REMARK   66  A    between atoms: _155  and  _156
REMARK   67  A    between atoms: _155  and  _158
REMARK   68  A    between atoms: _162  and  _163
REMARK   69  A    between atoms: _168  and  _170
REMARK   70  A    between atoms: _170  and  _171
REMARK   71  A    between atoms: _170  and  _173
REMARK   72  A    between atoms: _173  and  _174
REMARK   73  A    between atoms: _179  and  _180
REMARK   74  A    between atoms: _182  and  _184
REMARK   75  A    between atoms: _184  and  _185
REMARK   76  A    between atoms: _184  and  _187
REMARK   77  A    between atoms: _187  and  _188
REMARK   78  A    between atoms: _191  and  _193
REMARK   79  A    between atoms: _193  and  _194
REMARK   80  A    between atoms: _193  and  _196
REMARK   81  A    between atoms: _196  and  _197
REMARK   82  A    between atoms: _197  and  _198
REMARK   83  A    between atoms: _203  and  _205
REMARK   84  A    between atoms: _205  and  _206
REMARK   85  A    between atoms: _208  and  _210
REMARK   86  A    between atoms: _210  and  _211
REMARK   87  A    between atoms: _210  and  _213
REMARK   88  A    between atoms: _213  and  _214
REMARK   89  A    between atoms: _214  and  _215
REMARK   90  A    between atoms: _215  and  _216
REMARK   91  A    between atoms: _216  and  _217
REMARK   92  A    between atoms: _221  and  _223
REMARK   93  A    between atoms: _223  and  _224
REMARK   94  A    between atoms: _223  and  _226
REMARK   95  A    between atoms: _226  and  _227
REMARK   96  A    between atoms: _237  and  _239
REMARK   97  A    between atoms: _239  and  _240
REMARK   98  A    between atoms: _239  and  _242
REMARK   99  A    between atoms: _242  and  _243
REMARK  100  A    between atoms: _246  and  _248
REMARK  101  A    between atoms: _248  and  _249
REMARK  102  A    between atoms: _248  and  _251
REMARK  103  A    between atoms: _251  and  _252
REMARK  104  A    between atoms: _252  and  _253
REMARK  105  A    between atoms: _253  and  _254
REMARK  106  A    between atoms: _254  and  _255
REMARK  107  A    between atoms: _259  and  _261
REMARK  108  A    between atoms: _261  and  _262
REMARK  109  A    between atoms: _261  and  _264
REMARK  110  A    between atoms: _264  and  _265
REMARK  111  A    between atoms: _271  and  _273
REMARK  112  A    between atoms: _273  and  _274
REMARK  113  A    between atoms: _273  and  _276
REMARK  114  A    between atoms: _276  and  _277
REMARK  115  A    between atoms: _283  and  _285
REMARK  116  A    between atoms: _285  and  _286
REMARK  117  A    between atoms: _285  and  _288
REMARK  118  A    between atoms: _288  and  _289
REMARK  119  A    between atoms: _292  and  _294
REMARK  120  A    between atoms: _294  and  _295
REMARK  121  A    between atoms: _294  and  _297
REMARK  122  A    between atoms: _297  and  _298
REMARK  123  A    between atoms: _300  and  _302
REMARK  124  A    between atoms: _302  and  _303
REMARK  125  A    between atoms: _302  and  _305
REMARK  126  A    between atoms: _305  and  _306
REMARK  127  A    between atoms: _316  and  _318
REMARK  128  A    between atoms: _318  and  _319
REMARK  129  A    between atoms: _321  and  _323
REMARK  130  A    between atoms: _323  and  _324
REMARK  131  A    between atoms: _323  and  _326
REMARK  132  A    between atoms: _326  and  _327
REMARK  133  A    between atoms: _330  and  _332
REMARK  134  A    between atoms: _332  and  _333
REMARK  135  A    between atoms: _332  and  _335
REMARK  136  A    between atoms: _335  and  _336
REMARK  137  A    between atoms: _339  and  _341
REMARK  138  A    between atoms: _341  and  _342
REMARK  139  A    between atoms: _341  and  _344
REMARK  140  A    between atoms: _344  and  _345
REMARK  141  A    between atoms: _348  and  _350
REMARK  142  A    between atoms: _350  and  _351
REMARK  143  A    between atoms: _354  and  _356
REMARK  144  A    between atoms: _356  and  _357
REMARK  145  A    between atoms: _356  and  _359
REMARK  146  A    between atoms: _359  and  _360
REMARK  147  A    between atoms: _365  and  _366
REMARK  148  A    between atoms: _368  and  _370
REMARK  149  A    between atoms: _370  and  _371
REMARK  150  A    between atoms: _370  and  _373
REMARK  151  A    between atoms: _373  and  _374
REMARK  152  A    between atoms: _374  and  _375
REMARK  153  A    between atoms: _378  and  _380
REMARK  154  A    between atoms: _380  and  _381
REMARK  155  A    between atoms: _380  and  _383
REMARK  156  A    between atoms: _383  and  _384
REMARK  157  A    between atoms: _387  and  _389
REMARK  158  A    between atoms: _389  and  _390
REMARK  159  A    between atoms: _393  and  _395
REMARK  160  A    between atoms: _395  and  _396
REMARK  161  A    between atoms: _395  and  _398
REMARK  162  A    between atoms: _398  and  _399
REMARK  163  A    between atoms: _399  and  _400
REMARK  164  A    between atoms: _400  and  _401
REMARK  165  A    between atoms: _410  and  _412
REMARK  166  A    between atoms: _412  and  _413
REMARK  167  A    between atoms: _412  and  _415
REMARK  168  A    between atoms: _415  and  _416
REMARK  169  A    between atoms: _419  and  _421
REMARK  170  A    between atoms: _421  and  _422
REMARK  171  A    between atoms: _421  and  _424
REMARK  172  A    between atoms: _424  and  _425
REMARK  173  A    between atoms: _435  and  _437
REMARK  174  A    between atoms: _437  and  _438
REMARK  175  A    between atoms: _437  and  _440
REMARK  176  A    between atoms: _440  and  _441
REMARK  177  A    between atoms: _446  and  _447
REMARK  178  A    between atoms: _449  and  _451
REMARK  179  A    between atoms: _451  and  _452
REMARK  180  A    between atoms: _451  and  _454
REMARK  181  A    between atoms: _454  and  _455
REMARK  182  A    between atoms: _455  and  _456
REMARK  183  A    between atoms: _456  and  _457
REMARK  184  A    between atoms: _457  and  _458
REMARK  185  A    between atoms: _462  and  _464
REMARK  186  A    between atoms: _464  and  _465
REMARK  187  A    between atoms: _464  and  _467
REMARK  188  A    between atoms: _467  and  _468
REMARK  189  A    between atoms: _471  and  _473
REMARK  190  A    between atoms: _473  and  _474
REMARK  191  A    between atoms: _473  and  _476
REMARK  192  A    between atoms: _479  and  _481
REMARK  193  A    between atoms: _481  and  _482
REMARK  194  A    between atoms: _481  and  _484
REMARK  195  A    between atoms: _484  and  _485
REMARK  196  A    between atoms: _488  and  _490
REMARK  197  A    between atoms: _490  and  _491
REMARK  198  A    between atoms: _490  and  _493
REMARK  199  A    between atoms: _493  and  _494
REMARK  200  A    between atoms: _496  and  _498
REMARK  201  A    between atoms: _498  and  _499
REMARK  202  A    between atoms: _501  and  _503
REMARK  203  A    between atoms: _503  and  _504
REMARK  204  A    between atoms: _503  and  _506
REMARK  205  A    between atoms: _506  and  _507
REMARK  206  A    between atoms: _510  and  _512
REMARK  207  A    between atoms: _512  and  _513
REMARK  208  A    between atoms: _512  and  _515
REMARK  209  A    between atoms: _515  and  _516
REMARK  210  A    between atoms: _519  and  _521
REMARK  211  A    between atoms: _521  and  _522
REMARK  212  A    between atoms: _521  and  _524
REMARK  213  A    between atoms: _524  and  _525
REMARK  214  A    between atoms: _530  and  _532
REMARK  215  A    between atoms: _532  and  _533
REMARK  216  A    between atoms: _532  and  _535
REMARK  217  A    between atoms: _535  and  _536
REMARK  218  A    between atoms: _539  and  _541
REMARK  219  A    between atoms: _541  and  _542
REMARK  220  A    between atoms: _541  and  _544
REMARK  221  A    between atoms: _544  and  _545
REMARK  222  A    between atoms: _545  and  _546
REMARK  223  A    between atoms: _546  and  _547
REMARK  224  A    between atoms: _556  and  _558
REMARK  225  A    between atoms: _558  and  _559
REMARK  226  A    between atoms: _558  and  _561
REMARK  227  A    between atoms: _561  and  _562
REMARK  228  A    between atoms: _562  and  _563
REMARK  229  A    between atoms: _563  and  _564
REMARK  230  A    between atoms: _573  and  _575
REMARK  231  A    between atoms: _575  and  _576
REMARK  232  A    between atoms: _575  and  _578
REMARK  233  A    between atoms: _578  and  _579
REMARK  234  A    between atoms: _581  and  _583
REMARK  235  A    between atoms: _583  and  _584
REMARK  236  A    between atoms: _583  and  _586
REMARK  237  A    between atoms: _586  and  _587
REMARK  238  A    between atoms: _587  and  _588
REMARK  239  A    between atoms: _593  and  _595
REMARK  240  A    between atoms: _595  and  _596
REMARK  241  A    between atoms: _595  and  _598
REMARK  242  A    between atoms: _598  and  _599
REMARK  243  A    between atoms: _601  and  _603
REMARK  244  A    between atoms: _603  and  _604
REMARK  245  A    between atoms: _603  and  _606
REMARK  246  A    between atoms: _606  and  _607
REMARK  247  A    between atoms: _610  and  _612
REMARK  248  A    between atoms: _612  and  _613
REMARK  249  A    between atoms: _612  and  _615
REMARK  250  A    between atoms: _615  and  _616
REMARK  251  A    between atoms: _619  and  _621
REMARK  252  A    between atoms: _621  and  _622
REMARK  253  A    between atoms: _621  and  _624
REMARK  254  A    between atoms: _627  and  _629
REMARK  255  A    between atoms: _629  and  _630
REMARK  256  A    between atoms: _632  and  _634
REMARK  257  A    between atoms: _634  and  _635
REMARK  258  A    between atoms: _638  and  _640
REMARK  259  A    between atoms: _640  and  _641
REMARK  260  A    between atoms: _640  and  _643
REMARK  261  A    between atoms: _646  and  _648
REMARK  262  A    between atoms: _648  and  _649
REMARK  263  A    between atoms: _648  and  _651
REMARK  264  A    between atoms: _651  and  _652
REMARK  265  A    between atoms: _652  and  _653
REMARK  266  A    between atoms: _655  and  _657
REMARK  267  A    between atoms: _657  and  _658
REMARK  268  A    between atoms: _657  and  _660
REMARK  269  A    between atoms: _660  and  _661
REMARK  270  A    between atoms: _661  and  _662
REMARK                            x       y       z     vdW  Elec       q    Type
REMARK                         _______ _______ _______ _____ _____    ______ ____
ROOT
ATOM      1  O   HOH     1      -5.350   1.356  29.369  0.00  0.00    +0.000 OA
ENDROOT
TORSDOF 0
REMARK  Name = ../refined-set-2016/2g94/2g94_pocket.pdb
REMARK  270 active torsions:
REMARK  status: ('A' for Active; 'I' for Inactive)
REMARK    1  A    between atoms: _1  and  _3
REMARK    2  A    between atoms: _3  and  _4
REMARK    3  A    between atoms: _3  and  _6
REMARK    4  A    between atoms: _6  and  _7
REMARK    5  A    between atoms: _7  and  _8
REMARK    6  A    between atoms: _8  and  _9
REMARK    7  A    between atoms: _9  and  _10
REMARK    8  A    between atoms: _14  and  _16
REMARK    9  A    between atoms: _16  and  _17
REMARK   10  A    between atoms: _16  and  _19
REMARK   11  A    between atoms: _19  and  _20
REMARK   12  A    between atoms: _22  and  _24
REMARK   13  A    between atoms: _24  and  _25
REMARK   14  A    between atoms: _27  and  _29
REMARK   15  A    between atoms: _29  and  _30
REMARK   16  A    between atoms: _29  and  _32
REMARK   17  A    between atoms: _32  and  _33
REMARK   18  A    between atoms: _33  and  _34
REMARK   19  A    between atoms: _39  and  _41
REMARK   20  A    between atoms: _41  and  _42
REMARK   21  A    between atoms: _44  and  _46
REMARK   22  A    between atoms: _46  and  _47
REMARK   23  A    between atoms: _46  and  _49
REMARK   24  A    between atoms: _49  and  _50
REMARK   25  A    between atoms: _55  and  _56
REMARK   26  A    between atoms: _58  and  _60
REMARK   27  A    between atoms: _60  and  _61
REMARK   28  A    between atoms: _60  and  _63
REMARK   29  A    between atoms: _63  and  _64
REMARK   30  A    between atoms: _69  and  _70
REMARK   31  A    between atoms: _72  and  _74
REMARK   32  A    between atoms: _74  and  _75
REMARK   33  A    between atoms: _74  and  _77
REMARK   34  A    between atoms: _77  and  _78
REMARK   35  A    between atoms: _81  and  _83
REMARK   36  A    between atoms: _83  and  _84
REMARK   37  A    between atoms: _83  and  _86
REMARK   38  A    between atoms: _89  and  _91
REMARK   39  A    between atoms: _91  and  _92
REMARK   40  A    between atoms: _91  and  _94
REMARK   41  A    between atoms: _94  and  _95
REMARK   42  A    between atoms: _98  and  _100
REMARK   43  A    between atoms: _100  and  _101
REMARK   44  A    between atoms: _100  and  _103
REMARK   45  A    between atoms: _103  and  _104
REMARK   46  A    between atoms: _107  and  _109
REMARK   47  A    between atoms: _109  and  _110
REMARK   48  A    between atoms: _112  and  _114
REMARK   49  A    between atoms: _114  and  _115
REMARK   50  A    between atoms: _114  and  _117
REMARK   51  A    between atoms: _117  and  _118
REMARK   52  A    between atoms: _120  and  _122
REMARK   53  A    between atoms: _122  and  _123
REMARK   54  A    between atoms: _122  and  _125
REMARK   55  A    between atoms: _125  and  _126
REMARK   56  A    between atoms: _128  and  _130
REMARK   57  A    between atoms: _130  and  _131
REMARK   58  A    between atoms: _130  and  _133
REMARK   59  A    between atoms: _133  and  _134
REMARK   60  A    between atoms: _139  and  _141
REMARK   61  A    between atoms: _141  and  _142
REMARK   62  A    between atoms: _141  and  _144
REMARK   63  A    between atoms: _144  and  _145
REMARK   64  A    between atoms: _150  and  _151
REMARK   65  A    between atoms: _153  and  _155
REMARK   66  A    between atoms: _155  and  _156
REMARK   67  A    between atoms: _155  and  _158
REMARK   68  A    between atoms: _162  and  _163
REMARK   69  A    between atoms: _168  and  _170
REMARK   70  A    between atoms: _170  and  _171
REMARK   71  A    between atoms: _170  and  _173
REMARK   72  A    between atoms: _173  and  _174
REMARK   73  A    between atoms: _179  and  _180
REMARK   74  A    between atoms: _182  and  _184
REMARK   75  A    between atoms: _184  and  _185
REMARK   76  A    between atoms: _184  and  _187
REMARK   77  A    between atoms: _187  and  _188
REMARK   78  A    between atoms: _191  and  _193
REMARK   79  A    between atoms: _193  and  _194
REMARK   80  A    between atoms: _193  and  _196
REMARK   81  A    between atoms: _196  and  _197
REMARK   82  A    between atoms: _197  and  _198
REMARK   83  A    between atoms: _203  and  _205
REMARK   84  A    between atoms: _205  and  _206
REMARK   85  A    between atoms: _208  and  _210
REMARK   86  A    between atoms: _210  and  _211
REMARK   87  A    between atoms: _210  and  _213
REMARK   88  A    between atoms: _213  and  _214
REMARK   89  A    between atoms: _214  and  _215
REMARK   90  A    between atoms: _215  and  _216
REMARK   91  A    between atoms: _216  and  _217
REMARK   92  A    between atoms: _221  and  _223
REMARK   93  A    between atoms: _223  and  _224
REMARK   94  A    between atoms: _223  and  _226
REMARK   95  A    between atoms: _226  and  _227
REMARK   96  A    between atoms: _237  and  _239
REMARK   97  A    between atoms: _239  and  _240
REMARK   98  A    between atoms: _239  and  _242
REMARK   99  A    between atoms: _242  and  _243
REMARK  100  A    between atoms: _246  and  _248
REMARK  101  A    between atoms: _248  and  _249
REMARK  102  A    between atoms: _248  and  _251
REMARK  103  A    between atoms: _251  and  _252
REMARK  104  A    between atoms: _252  and  _253
REMARK  105  A    between atoms: _253  and  _254
REMARK  106  A    between atoms: _254  and  _255
REMARK  107  A    between atoms: _259  and  _261
REMARK  108  A    between atoms: _261  and  _262
REMARK  109  A    between atoms: _261  and  _264
REMARK  110  A    between atoms: _264  and  _265
REMARK  111  A    between atoms: _271  and  _273
REMARK  112  A    between atoms: _273  and  _274
REMARK  113  A    between atoms: _273  and  _276
REMARK  114  A    between atoms: _276  and  _277
REMARK  115  A    between atoms: _283  and  _285
REMARK  116  A    between atoms: _285  and  _286
REMARK  117  A    between atoms: _285  and  _288
REMARK  118  A    between atoms: _288  and  _289
REMARK  119  A    between atoms: _292  and  _294
REMARK  120  A    between atoms: _294  and  _295
REMARK  121  A    between atoms: _294  and  _297
REMARK  122  A    between atoms: _297  and  _298
REMARK  123  A    between atoms: _300  and  _302
REMARK  124  A    between atoms: _302  and  _303
REMARK  125  A    between atoms: _302  and  _305
REMARK  126  A    between atoms: _305  and  _306
REMARK  127  A    between atoms: _316  and  _318
REMARK  128  A    between atoms: _318  and  _319
REMARK  129  A    between atoms: _321  and  _323
REMARK  130  A    between atoms: _323  and  _324
REMARK  131  A    between atoms: _323  and  _326
REMARK  132  A    between atoms: _326  and  _327
REMARK  133  A    between atoms: _330  and  _332
REMARK  134  A    between atoms: _332  and  _333
REMARK  135  A    between atoms: _332  and  _335
REMARK  136  A    between atoms: _335  and  _336
REMARK  137  A    between atoms: _339  and  _341
REMARK  138  A    between atoms: _341  and  _342
REMARK  139  A    between atoms: _341  and  _344
REMARK  140  A    between atoms: _344  and  _345
REMARK  141  A    between atoms: _348  and  _350
REMARK  142  A    between atoms: _350  and  _351
REMARK  143  A    between atoms: _354  and  _356
REMARK  144  A    between atoms: _356  and  _357
REMARK  145  A    between atoms: _356  and  _359
REMARK  146  A    between atoms: _359  and  _360
REMARK  147  A    between atoms: _365  and  _366
REMARK  148  A    between atoms: _368  and  _370
REMARK  149  A    between atoms: _370  and  _371
REMARK  150  A    between atoms: _370  and  _373
REMARK  151  A    between atoms: _373  and  _374
REMARK  152  A    between atoms: _374  and  _375
REMARK  153  A    between atoms: _378  and  _380
REMARK  154  A    between atoms: _380  and  _381
REMARK  155  A    between atoms: _380  and  _383
REMARK  156  A    between atoms: _383  and  _384
REMARK  157  A    between atoms: _387  and  _389
REMARK  158  A    between atoms: _389  and  _390
REMARK  159  A    between atoms: _393  and  _395
REMARK  160  A    between atoms: _395  and  _396
REMARK  161  A    between atoms: _395  and  _398
REMARK  162  A    between atoms: _398  and  _399
REMARK  163  A    between atoms: _399  and  _400
REMARK  164  A    between atoms: _400  and  _401
REMARK  165  A    between atoms: _410  and  _412
REMARK  166  A    between atoms: _412  and  _413
REMARK  167  A    between atoms: _412  and  _415
REMARK  168  A    between atoms: _415  and  _416
REMARK  169  A    between atoms: _419  and  _421
REMARK  170  A    between atoms: _421  and  _422
REMARK  171  A    between atoms: _421  and  _424
REMARK  172  A    between atoms: _424  and  _425
REMARK  173  A    between atoms: _435  and  _437
REMARK  174  A    between atoms: _437  and  _438
REMARK  175  A    between atoms: _437  and  _440
REMARK  176  A    between atoms: _440  and  _441
REMARK  177  A    between atoms: _446  and  _447
REMARK  178  A    between atoms: _449  and  _451
REMARK  179  A    between atoms: _451  and  _452
REMARK  180  A    between atoms: _451  and  _454
REMARK  181  A    between atoms: _454  and  _455
REMARK  182  A    between atoms: _455  and  _456
REMARK  183  A    between atoms: _456  and  _457
REMARK  184  A    between atoms: _457  and  _458
REMARK  185  A    between atoms: _462  and  _464
REMARK  186  A    between atoms: _464  and  _465
REMARK  187  A    between atoms: _464  and  _467
REMARK  188  A    between atoms: _467  and  _468
REMARK  189  A    between atoms: _471  and  _473
REMARK  190  A    between atoms: _473  and  _474
REMARK  191  A    between atoms: _473  and  _476
REMARK  192  A    between atoms: _479  and  _481
REMARK  193  A    between atoms: _481  and  _482
REMARK  194  A    between atoms: _481  and  _484
REMARK  195  A    between atoms: _484  and  _485
REMARK  196  A    between atoms: _488  and  _490
REMARK  197  A    between atoms: _490  and  _491
REMARK  198  A    between atoms: _490  and  _493
REMARK  199  A    between atoms: _493  and  _494
REMARK  200  A    between atoms: _496  and  _498
REMARK  201  A    between atoms: _498  and  _499
REMARK  202  A    between atoms: _501  and  _503
REMARK  203  A    between atoms: _503  and  _504
REMARK  204  A    between atoms: _503  and  _506
REMARK  205  A    between atoms: _506  and  _507
REMARK  206  A    between atoms: _510  and  _512
REMARK  207  A    between atoms: _512  and  _513
REMARK  208  A    between atoms: _512  and  _515
REMARK  209  A    between atoms: _515  and  _516
REMARK  210  A    between atoms: _519  and  _521
REMARK  211  A    between atoms: _521  and  _522
REMARK  212  A    between atoms: _521  and  _524
REMARK  213  A    between atoms: _524  and  _525
REMARK  214  A    between atoms: _530  and  _532
REMARK  215  A    between atoms: _532  and  _533
REMARK  216  A    between atoms: _532  and  _535
REMARK  217  A    between atoms: _535  and  _536
REMARK  218  A    between atoms: _539  and  _541
REMARK  219  A    between atoms: _541  and  _542
REMARK  220  A    between atoms: _541  and  _544
REMARK  221  A    between atoms: _544  and  _545
REMARK  222  A    between atoms: _545  and  _546
REMARK  223  A    between atoms: _546  and  _547
REMARK  224  A    between atoms: _556  and  _558
REMARK  225  A    between atoms: _558  and  _559
REMARK  226  A    between atoms: _558  and  _561
REMARK  227  A    between atoms: _561  and  _562
REMARK  228  A    between atoms: _562  and  _563
REMARK  229  A    between atoms: _563  and  _564
REMARK  230  A    between atoms: _573  and  _575
REMARK  231  A    between atoms: _575  and  _576
REMARK  232  A    between atoms: _575  and  _578
REMARK  233  A    between atoms: _578  and  _579
REMARK  234  A    between atoms: _581  and  _583
REMARK  235  A    between atoms: _583  and  _584
REMARK  236  A    between atoms: _583  and  _586
REMARK  237  A    between atoms: _586  and  _587
REMARK  238  A    between atoms: _587  and  _588
REMARK  239  A    between atoms: _593  and  _595
REMARK  240  A    between atoms: _595  and  _596
REMARK  241  A    between atoms: _595  and  _598
REMARK  242  A    between atoms: _598  and  _599
REMARK  243  A    between atoms: _601  and  _603
REMARK  244  A    between atoms: _603  and  _604
REMARK  245  A    between atoms: _603  and  _606
REMARK  246  A    between atoms: _606  and  _607
REMARK  247  A    between atoms: _610  and  _612
REMARK  248  A    between atoms: _612  and  _613
REMARK  249  A    between atoms: _612  and  _615
REMARK  250  A    between atoms: _615  and  _616
REMARK  251  A    between atoms: _619  and  _621
REMARK  252  A    between atoms: _621  and  _622
REMARK  253  A    between atoms: _621  and  _624
REMARK  254  A    between atoms: _627  and  _629
REMARK  255  A    between atoms: _629  and  _630
REMARK  256  A    between atoms: _632  and  _634
REMARK  257  A    between atoms: _634  and  _635
REMARK  258  A    between atoms: _638  and  _640
REMARK  259  A    between atoms: _640  and  _641
REMARK  260  A    between atoms: _640  and  _643
REMARK  261  A    between atoms: _646  and  _648
REMARK  262  A    between atoms: _648  and  _649
REMARK  263  A    between atoms: _648  and  _651
REMARK  264  A    between atoms: _651  and  _652
REMARK  265  A    between atoms: _652  and  _653
REMARK  266  A    between atoms: _655  and  _657
REMARK  267  A    between atoms: _657  and  _658
REMARK  268  A    between atoms: _657  and  _660
REMARK  269  A    between atoms: _660  and  _661
REMARK  270  A    between atoms: _661  and  _662
REMARK                            x       y       z     vdW  Elec       q    Type
REMARK                         _______ _______ _______ _____ _____    ______ ____
ROOT
ATOM      1  O   HOH     1     -12.576  -5.010  36.900  0.00  0.00    +0.000 OA
ENDROOT
TORSDOF 0
REMARK  Name = ../refined-set-2016/2g94/2g94_pocket.pdb
REMARK  270 active torsions:
REMARK  status: ('A' for Active; 'I' for Inactive)
REMARK    1  A    between atoms: _1  and  _3
REMARK    2  A    between atoms: _3  and  _4
REMARK    3  A    between atoms: _3  and  _6
REMARK    4  A    between atoms: _6  and  _7
REMARK    5  A    between atoms: _7  and  _8
REMARK    6  A    between atoms: _8  and  _9
REMARK    7  A    between atoms: _9  and  _10
REMARK    8  A    between atoms: _14  and  _16
REMARK    9  A    between atoms: _16  and  _17
REMARK   10  A    between atoms: _16  and  _19
REMARK   11  A    between atoms: _19  and  _20
REMARK   12  A    between atoms: _22  and  _24
REMARK   13  A    between atoms: _24  and  _25
REMARK   14  A    between atoms: _27  and  _29
REMARK   15  A    between atoms: _29  and  _30
REMARK   16  A    between atoms: _29  and  _32
REMARK   17  A    between atoms: _32  and  _33
REMARK   18  A    between atoms: _33  and  _34
REMARK   19  A    between atoms: _39  and  _41
REMARK   20  A    between atoms: _41  and  _42
REMARK   21  A    between atoms: _44  and  _46
REMARK   22  A    between atoms: _46  and  _47
REMARK   23  A    between atoms: _46  and  _49
REMARK   24  A    between atoms: _49  and  _50
REMARK   25  A    between atoms: _55  and  _56
REMARK   26  A    between atoms: _58  and  _60
REMARK   27  A    between atoms: _60  and  _61
REMARK   28  A    between atoms: _60  and  _63
REMARK   29  A    between atoms: _63  and  _64
REMARK   30  A    between atoms: _69  and  _70
REMARK   31  A    between atoms: _72  and  _74
REMARK   32  A    between atoms: _74  and  _75
REMARK   33  A    between atoms: _74  and  _77
REMARK   34  A    between atoms: _77  and  _78
REMARK   35  A    between atoms: _81  and  _83
REMARK   36  A    between atoms: _83  and  _84
REMARK   37  A    between atoms: _83  and  _86
REMARK   38  A    between atoms: _89  and  _91
REMARK   39  A    between atoms: _91  and  _92
REMARK   40  A    between atoms: _91  and  _94
REMARK   41  A    between atoms: _94  and  _95
REMARK   42  A    between atoms: _98  and  _100
REMARK   43  A    between atoms: _100  and  _101
REMARK   44  A    between atoms: _100  and  _103
REMARK   45  A    between atoms: _103  and  _104
REMARK   46  A    between atoms: _107  and  _109
REMARK   47  A    between atoms: _109  and  _110
REMARK   48  A    between atoms: _112  and  _114
REMARK   49  A    between atoms: _114  and  _115
REMARK   50  A    between atoms: _114  and  _117
REMARK   51  A    between atoms: _117  and  _118
REMARK   52  A    between atoms: _120  and  _122
REMARK   53  A    between atoms: _122  and  _123
REMARK   54  A    between atoms: _122  and  _125
REMARK   55  A    between atoms: _125  and  _126
REMARK   56  A    between atoms: _128  and  _130
REMARK   57  A    between atoms: _130  and  _131
REMARK   58  A    between atoms: _130  and  _133
REMARK   59  A    between atoms: _133  and  _134
REMARK   60  A    between atoms: _139  and  _141
REMARK   61  A    between atoms: _141  and  _142
REMARK   62  A    between atoms: _141  and  _144
REMARK   63  A    between atoms: _144  and  _145
REMARK   64  A    between atoms: _150  and  _151
REMARK   65  A    between atoms: _153  and  _155
REMARK   66  A    between atoms: _155  and  _156
REMARK   67  A    between atoms: _155  and  _158
REMARK   68  A    between atoms: _162  and  _163
REMARK   69  A    between atoms: _168  and  _170
REMARK   70  A    between atoms: _170  and  _171
REMARK   71  A    between atoms: _170  and  _173
REMARK   72  A    between atoms: _173  and  _174
REMARK   73  A    between atoms: _179  and  _180
REMARK   74  A    between atoms: _182  and  _184
REMARK   75  A    between atoms: _184  and  _185
REMARK   76  A    between atoms: _184  and  _187
REMARK   77  A    between atoms: _187  and  _188
REMARK   78  A    between atoms: _191  and  _193
REMARK   79  A    between atoms: _193  and  _194
REMARK   80  A    between atoms: _193  and  _196
REMARK   81  A    between atoms: _196  and  _197
REMARK   82  A    between atoms: _197  and  _198
REMARK   83  A    between atoms: _203  and  _205
REMARK   84  A    between atoms: _205  and  _206
REMARK   85  A    between atoms: _208  and  _210
REMARK   86  A    between atoms: _210  and  _211
REMARK   87  A    between atoms: _210  and  _213
REMARK   88  A    between atoms: _213  and  _214
REMARK   89  A    between atoms: _214  and  _215
REMARK   90  A    between atoms: _215  and  _216
REMARK   91  A    between atoms: _216  and  _217
REMARK   92  A    between atoms: _221  and  _223
REMARK   93  A    between atoms: _223  and  _224
REMARK   94  A    between atoms: _223  and  _226
REMARK   95  A    between atoms: _226  and  _227
REMARK   96  A    between atoms: _237  and  _239
REMARK   97  A    between atoms: _239  and  _240
REMARK   98  A    between atoms: _239  and  _242
REMARK   99  A    between atoms: _242  and  _243
REMARK  100  A    between atoms: _246  and  _248
REMARK  101  A    between atoms: _248  and  _249
REMARK  102  A    between atoms: _248  and  _251
REMARK  103  A    between atoms: _251  and  _252
REMARK  104  A    between atoms: _252  and  _253
REMARK  105  A    between atoms: _253  and  _254
REMARK  106  A    between atoms: _254  and  _255
REMARK  107  A    between atoms: _259  and  _261
REMARK  108  A    between atoms: _261  and  _262
REMARK  109  A    between atoms: _261  and  _264
REMARK  110  A    between atoms: _264  and  _265
REMARK  111  A    between atoms: _271  and  _273
REMARK  112  A    between atoms: _273  and  _274
REMARK  113  A    between atoms: _273  and  _276
REMARK  114  A    between atoms: _276  and  _277
REMARK  115  A    between atoms: _283  and  _285
REMARK  116  A    between atoms: _285  and  _286
REMARK  117  A    between atoms: _285  and  _288
REMARK  118  A    between atoms: _288  and  _289
REMARK  119  A    between atoms: _292  and  _294
REMARK  120  A    between atoms: _294  and  _295
REMARK  121  A    between atoms: _294  and  _297
REMARK  122  A    between atoms: _297  and  _298
REMARK  123  A    between atoms: _300  and  _302
REMARK  124  A    between atoms: _302  and  _303
REMARK  125  A    between atoms: _302  and  _305
REMARK  126  A    between atoms: _305  and  _306
REMARK  127  A    between atoms: _316  and  _318
REMARK  128  A    between atoms: _318  and  _319
REMARK  129  A    between atoms: _321  and  _323
REMARK  130  A    between atoms: _323  and  _324
REMARK  131  A    between atoms: _323  and  _326
REMARK  132  A    between atoms: _326  and  _327
REMARK  133  A    between atoms: _330  and  _332
REMARK  134  A    between atoms: _332  and  _333
REMARK  135  A    between atoms: _332  and  _335
REMARK  136  A    between atoms: _335  and  _336
REMARK  137  A    between atoms: _339  and  _341
REMARK  138  A    between atoms: _341  and  _342
REMARK  139  A    between atoms: _341  and  _344
REMARK  140  A    between atoms: _344  and  _345
REMARK  141  A    between atoms: _348  and  _350
REMARK  142  A    between atoms: _350  and  _351
REMARK  143  A    between atoms: _354  and  _356
REMARK  144  A    between atoms: _356  and  _357
REMARK  145  A    between atoms: _356  and  _359
REMARK  146  A    between atoms: _359  and  _360
REMARK  147  A    between atoms: _365  and  _366
REMARK  148  A    between atoms: _368  and  _370
REMARK  149  A    between atoms: _370  and  _371
REMARK  150  A    between atoms: _370  and  _373
REMARK  151  A    between atoms: _373  and  _374
REMARK  152  A    between atoms: _374  and  _375
REMARK  153  A    between atoms: _378  and  _380
REMARK  154  A    between atoms: _380  and  _381
REMARK  155  A    between atoms: _380  and  _383
REMARK  156  A    between atoms: _383  and  _384
REMARK  157  A    between atoms: _387  and  _389
REMARK  158  A    between atoms: _389  and  _390
REMARK  159  A    between atoms: _393  and  _395
REMARK  160  A    between atoms: _395  and  _396
REMARK  161  A    between atoms: _395  and  _398
REMARK  162  A    between atoms: _398  and  _399
REMARK  163  A    between atoms: _399  and  _400
REMARK  164  A    between atoms: _400  and  _401
REMARK  165  A    between atoms: _410  and  _412
REMARK  166  A    between atoms: _412  and  _413
REMARK  167  A    between atoms: _412  and  _415
REMARK  168  A    between atoms: _415  and  _416
REMARK  169  A    between atoms: _419  and  _421
REMARK  170  A    between atoms: _421  and  _422
REMARK  171  A    between atoms: _421  and  _424
REMARK  172  A    between atoms: _424  and  _425
REMARK  173  A    between atoms: _435  and  _437
REMARK  174  A    between atoms: _437  and  _438
REMARK  175  A    between atoms: _437  and  _440
REMARK  176  A    between atoms: _440  and  _441
REMARK  177  A    between atoms: _446  and  _447
REMARK  178  A    between atoms: _449  and  _451
REMARK  179  A    between atoms: _451  and  _452
REMARK  180  A    between atoms: _451  and  _454
REMARK  181  A    between atoms: _454  and  _455
REMARK  182  A    between atoms: _455  and  _456
REMARK  183  A    between atoms: _456  and  _457
REMARK  184  A    between atoms: _457  and  _458
REMARK  185  A    between atoms: _462  and  _464
REMARK  186  A    between atoms: _464  and  _465
REMARK  187  A    between atoms: _464  and  _467
REMARK  188  A    between atoms: _467  and  _468
REMARK  189  A    between atoms: _471  and  _473
REMARK  190  A    between atoms: _473  and  _474
REMARK  191  A    between atoms: _473  and  _476
REMARK  192  A    between atoms: _479  and  _481
REMARK  193  A    between atoms: _481  and  _482
REMARK  194  A    between atoms: _481  and  _484
REMARK  195  A    between atoms: _484  and  _485
REMARK  196  A    between atoms: _488  and  _490
REMARK  197  A    between atoms: _490  and  _491
REMARK  198  A    between atoms: _490  and  _493
REMARK  199  A    between atoms: _493  and  _494
REMARK  200  A    between atoms: _496  and  _498
REMARK  201  A    between atoms: _498  and  _499
REMARK  202  A    between atoms: _501  and  _503
REMARK  203  A    between atoms: _503  and  _504
REMARK  204  A    between atoms: _503  and  _506
REMARK  205  A    between atoms: _506  and  _507
REMARK  206  A    between atoms: _510  and  _512
REMARK  207  A    between atoms: _512  and  _513
REMARK  208  A    between atoms: _512  and  _515
REMARK  209  A    between atoms: _515  and  _516
REMARK  210  A    between atoms: _519  and  _521
REMARK  211  A    between atoms: _521  and  _522
REMARK  212  A    between atoms: _521  and  _524
REMARK  213  A    between atoms: _524  and  _525
REMARK  214  A    between atoms: _530  and  _532
REMARK  215  A    between atoms: _532  and  _533
REMARK  216  A    between atoms: _532  and  _535
REMARK  217  A    between atoms: _535  and  _536
REMARK  218  A    between atoms: _539  and  _541
REMARK  219  A    between atoms: _541  and  _542
REMARK  220  A    between atoms: _541  and  _544
REMARK  221  A    between atoms: _544  and  _545
REMARK  222  A    between atoms: _545  and  _546
REMARK  223  A    between atoms: _546  and  _547
REMARK  224  A    between atoms: _556  and  _558
REMARK  225  A    between atoms: _558  and  _559
REMARK  226  A    between atoms: _558  and  _561
REMARK  227  A    between atoms: _561  and  _562
REMARK  228  A    between atoms: _562  and  _563
REMARK  229  A    between atoms: _563  and  _564
REMARK  230  A    between atoms: _573  and  _575
REMARK  231  A    between atoms: _575  and  _576
REMARK  232  A    between atoms: _575  and  _578
REMARK  233  A    between atoms: _578  and  _579
REMARK  234  A    between atoms: _581  and  _583
REMARK  235  A    between atoms: _583  and  _584
REMARK  236  A    between atoms: _583  and  _586
REMARK  237  A    between atoms: _586  and  _587
REMARK  238  A    between atoms: _587  and  _588
REMARK  239  A    between atoms: _593  and  _595
REMARK  240  A    between atoms: _595  and  _596
REMARK  241  A    between atoms: _595  and  _598
REMARK  242  A    between atoms: _598  and  _599
REMARK  243  A    between atoms: _601  and  _603
REMARK  244  A    between atoms: _603  and  _604
REMARK  245  A    between atoms: _603  and  _606
REMARK  246  A    between atoms: _606  and  _607
REMARK  247  A    between atoms: _610  and  _612
REMARK  248  A    between atoms: _612  and  _613
REMARK  249  A    between atoms: _612  and  _615
REMARK  250  A    between atoms: _615  and  _616
REMARK  251  A    between atoms: _619  and  _621
REMARK  252  A    between atoms: _621  and  _622
REMARK  253  A    between atoms: _621  and  _624
REMARK  254  A    between atoms: _627  and  _629
REMARK  255  A    between atoms: _629  and  _630
REMARK  256  A    between atoms: _632  and  _634
REMARK  257  A    between atoms: _634  and  _635
REMARK  258  A    between atoms: _638  and  _640
REMARK  259  A    between atoms: _640  and  _641
REMARK  260  A    between atoms: _640  and  _643
REMARK  261  A    between atoms: _646  and  _648
REMARK  262  A    between atoms: _648  and  _649
REMARK  263  A    between atoms: _648  and  _651
REMARK  264  A    between atoms: _651  and  _652
REMARK  265  A    between atoms: _652  and  _653
REMARK  266  A    between atoms: _655  and  _657
REMARK  267  A    between atoms: _657  and  _658
REMARK  268  A    between atoms: _657  and  _660
REMARK  269  A    between atoms: _660  and  _661
REMARK  270  A    between atoms: _661  and  _662
REMARK                            x       y       z     vdW  Elec       q    Type
REMARK                         _______ _______ _______ _____ _____    ______ ____
ROOT
ATOM      1  O   HOH     1      -1.294  -9.811  29.212  0.00  0.00    +0.000 OA
ENDROOT
TORSDOF 0
REMARK  Name = ../refined-set-2016/2g94/2g94_pocket.pdb
REMARK  270 active torsions:
REMARK  status: ('A' for Active; 'I' for Inactive)
REMARK    1  A    between atoms: _1  and  _3
REMARK    2  A    between atoms: _3  and  _4
REMARK    3  A    between atoms: _3  and  _6
REMARK    4  A    between atoms: _6  and  _7
REMARK    5  A    between atoms: _7  and  _8
REMARK    6  A    between atoms: _8  and  _9
REMARK    7  A    between atoms: _9  and  _10
REMARK    8  A    between atoms: _14  and  _16
REMARK    9  A    between atoms: _16  and  _17
REMARK   10  A    between atoms: _16  and  _19
REMARK   11  A    between atoms: _19  and  _20
REMARK   12  A    between atoms: _22  and  _24
REMARK   13  A    between atoms: _24  and  _25
REMARK   14  A    between atoms: _27  and  _29
REMARK   15  A    between atoms: _29  and  _30
REMARK   16  A    between atoms: _29  and  _32
REMARK   17  A    between atoms: _32  and  _33
REMARK   18  A    between atoms: _33  and  _34
REMARK   19  A    between atoms: _39  and  _41
REMARK   20  A    between atoms: _41  and  _42
REMARK   21  A    between atoms: _44  and  _46
REMARK   22  A    between atoms: _46  and  _47
REMARK   23  A    between atoms: _46  and  _49
REMARK   24  A    between atoms: _49  and  _50
REMARK   25  A    between atoms: _55  and  _56
REMARK   26  A    between atoms: _58  and  _60
REMARK   27  A    between atoms: _60  and  _61
REMARK   28  A    between atoms: _60  and  _63
REMARK   29  A    between atoms: _63  and  _64
REMARK   30  A    between atoms: _69  and  _70
REMARK   31  A    between atoms: _72  and  _74
REMARK   32  A    between atoms: _74  and  _75
REMARK   33  A    between atoms: _74  and  _77
REMARK   34  A    between atoms: _77  and  _78
REMARK   35  A    between atoms: _81  and  _83
REMARK   36  A    between atoms: _83  and  _84
REMARK   37  A    between atoms: _83  and  _86
REMARK   38  A    between atoms: _89  and  _91
REMARK   39  A    between atoms: _91  and  _92
REMARK   40  A    between atoms: _91  and  _94
REMARK   41  A    between atoms: _94  and  _95
REMARK   42  A    between atoms: _98  and  _100
REMARK   43  A    between atoms: _100  and  _101
REMARK   44  A    between atoms: _100  and  _103
REMARK   45  A    between atoms: _103  and  _104
REMARK   46  A    between atoms: _107  and  _109
REMARK   47  A    between atoms: _109  and  _110
REMARK   48  A    between atoms: _112  and  _114
REMARK   49  A    between atoms: _114  and  _115
REMARK   50  A    between atoms: _114  and  _117
REMARK   51  A    between atoms: _117  and  _118
REMARK   52  A    between atoms: _120  and  _122
REMARK   53  A    between atoms: _122  and  _123
REMARK   54  A    between atoms: _122  and  _125
REMARK   55  A    between atoms: _125  and  _126
REMARK   56  A    between atoms: _128  and  _130
REMARK   57  A    between atoms: _130  and  _131
REMARK   58  A    between atoms: _130  and  _133
REMARK   59  A    between atoms: _133  and  _134
REMARK   60  A    between atoms: _139  and  _141
REMARK   61  A    between atoms: _141  and  _142
REMARK   62  A    between atoms: _141  and  _144
REMARK   63  A    between atoms: _144  and  _145
REMARK   64  A    between atoms: _150  and  _151
REMARK   65  A    between atoms: _153  and  _155
REMARK   66  A    between atoms: _155  and  _156
REMARK   67  A    between atoms: _155  and  _158
REMARK   68  A    between atoms: _162  and  _163
REMARK   69  A    between atoms: _168  and  _170
REMARK   70  A    between atoms: _170  and  _171
REMARK   71  A    between atoms: _170  and  _173
REMARK   72  A    between atoms: _173  and  _174
REMARK   73  A    between atoms: _179  and  _180
REMARK   74  A    between atoms: _182  and  _184
REMARK   75  A    between atoms: _184  and  _185
REMARK   76  A    between atoms: _184  and  _187
REMARK   77  A    between atoms: _187  and  _188
REMARK   78  A    between atoms: _191  and  _193
REMARK   79  A    between atoms: _193  and  _194
REMARK   80  A    between atoms: _193  and  _196
REMARK   81  A    between atoms: _196  and  _197
REMARK   82  A    between atoms: _197  and  _198
REMARK   83  A    between atoms: _203  and  _205
REMARK   84  A    between atoms: _205  and  _206
REMARK   85  A    between atoms: _208  and  _210
REMARK   86  A    between atoms: _210  and  _211
REMARK   87  A    between atoms: _210  and  _213
REMARK   88  A    between atoms: _213  and  _214
REMARK   89  A    between atoms: _214  and  _215
REMARK   90  A    between atoms: _215  and  _216
REMARK   91  A    between atoms: _216  and  _217
REMARK   92  A    between atoms: _221  and  _223
REMARK   93  A    between atoms: _223  and  _224
REMARK   94  A    between atoms: _223  and  _226
REMARK   95  A    between atoms: _226  and  _227
REMARK   96  A    between atoms: _237  and  _239
REMARK   97  A    between atoms: _239  and  _240
REMARK   98  A    between atoms: _239  and  _242
REMARK   99  A    between atoms: _242  and  _243
REMARK  100  A    between atoms: _246  and  _248
REMARK  101  A    between atoms: _248  and  _249
REMARK  102  A    between atoms: _248  and  _251
REMARK  103  A    between atoms: _251  and  _252
REMARK  104  A    between atoms: _252  and  _253
REMARK  105  A    between atoms: _253  and  _254
REMARK  106  A    between atoms: _254  and  _255
REMARK  107  A    between atoms: _259  and  _261
REMARK  108  A    between atoms: _261  and  _262
REMARK  109  A    between atoms: _261  and  _264
REMARK  110  A    between atoms: _264  and  _265
REMARK  111  A    between atoms: _271  and  _273
REMARK  112  A    between atoms: _273  and  _274
REMARK  113  A    between atoms: _273  and  _276
REMARK  114  A    between atoms: _276  and  _277
REMARK  115  A    between atoms: _283  and  _285
REMARK  116  A    between atoms: _285  and  _286
REMARK  117  A    between atoms: _285  and  _288
REMARK  118  A    between atoms: _288  and  _289
REMARK  119  A    between atoms: _292  and  _294
REMARK  120  A    between atoms: _294  and  _295
REMARK  121  A    between atoms: _294  and  _297
REMARK  122  A    between atoms: _297  and  _298
REMARK  123  A    between atoms: _300  and  _302
REMARK  124  A    between atoms: _302  and  _303
REMARK  125  A    between atoms: _302  and  _305
REMARK  126  A    between atoms: _305  and  _306
REMARK  127  A    between atoms: _316  and  _318
REMARK  128  A    between atoms: _318  and  _319
REMARK  129  A    between atoms: _321  and  _323
REMARK  130  A    between atoms: _323  and  _324
REMARK  131  A    between atoms: _323  and  _326
REMARK  132  A    between atoms: _326  and  _327
REMARK  133  A    between atoms: _330  and  _332
REMARK  134  A    between atoms: _332  and  _333
REMARK  135  A    between atoms: _332  and  _335
REMARK  136  A    between atoms: _335  and  _336
REMARK  137  A    between atoms: _339  and  _341
REMARK  138  A    between atoms: _341  and  _342
REMARK  139  A    between atoms: _341  and  _344
REMARK  140  A    between atoms: _344  and  _345
REMARK  141  A    between atoms: _348  and  _350
REMARK  142  A    between atoms: _350  and  _351
REMARK  143  A    between atoms: _354  and  _356
REMARK  144  A    between atoms: _356  and  _357
REMARK  145  A    between atoms: _356  and  _359
REMARK  146  A    between atoms: _359  and  _360
REMARK  147  A    between atoms: _365  and  _366
REMARK  148  A    between atoms: _368  and  _370
REMARK  149  A    between atoms: _370  and  _371
REMARK  150  A    between atoms: _370  and  _373
REMARK  151  A    between atoms: _373  and  _374
REMARK  152  A    between atoms: _374  and  _375
REMARK  153  A    between atoms: _378  and  _380
REMARK  154  A    between atoms: _380  and  _381
REMARK  155  A    between atoms: _380  and  _383
REMARK  156  A    between atoms: _383  and  _384
REMARK  157  A    between atoms: _387  and  _389
REMARK  158  A    between atoms: _389  and  _390
REMARK  159  A    between atoms: _393  and  _395
REMARK  160  A    between atoms: _395  and  _396
REMARK  161  A    between atoms: _395  and  _398
REMARK  162  A    between atoms: _398  and  _399
REMARK  163  A    between atoms: _399  and  _400
REMARK  164  A    between atoms: _400  and  _401
REMARK  165  A    between atoms: _410  and  _412
REMARK  166  A    between atoms: _412  and  _413
REMARK  167  A    between atoms: _412  and  _415
REMARK  168  A    between atoms: _415  and  _416
REMARK  169  A    between atoms: _419  and  _421
REMARK  170  A    between atoms: _421  and  _422
REMARK  171  A    between atoms: _421  and  _424
REMARK  172  A    between atoms: _424  and  _425
REMARK  173  A    between atoms: _435  and  _437
REMARK  174  A    between atoms: _437  and  _438
REMARK  175  A    between atoms: _437  and  _440
REMARK  176  A    between atoms: _440  and  _441
REMARK  177  A    between atoms: _446  and  _447
REMARK  178  A    between atoms: _449  and  _451
REMARK  179  A    between atoms: _451  and  _452
REMARK  180  A    between atoms: _451  and  _454
REMARK  181  A    between atoms: _454  and  _455
REMARK  182  A    between atoms: _455  and  _456
REMARK  183  A    between atoms: _456  and  _457
REMARK  184  A    between atoms: _457  and  _458
REMARK  185  A    between atoms: _462  and  _464
REMARK  186  A    between atoms: _464  and  _465
REMARK  187  A    between atoms: _464  and  _467
REMARK  188  A    between atoms: _467  and  _468
REMARK  189  A    between atoms: _471  and  _473
REMARK  190  A    between atoms: _473  and  _474
REMARK  191  A    between atoms: _473  and  _476
REMARK  192  A    between atoms: _479  and  _481
REMARK  193  A    between atoms: _481  and  _482
REMARK  194  A    between atoms: _481  and  _484
REMARK  195  A    between atoms: _484  and  _485
REMARK  196  A    between atoms: _488  and  _490
REMARK  197  A    between atoms: _490  and  _491
REMARK  198  A    between atoms: _490  and  _493
REMARK  199  A    between atoms: _493  and  _494
REMARK  200  A    between atoms: _496  and  _498
REMARK  201  A    between atoms: _498  and  _499
REMARK  202  A    between atoms: _501  and  _503
REMARK  203  A    between atoms: _503  and  _504
REMARK  204  A    between atoms: _503  and  _506
REMARK  205  A    between atoms: _506  and  _507
REMARK  206  A    between atoms: _510  and  _512
REMARK  207  A    between atoms: _512  and  _513
REMARK  208  A    between atoms: _512  and  _515
REMARK  209  A    between atoms: _515  and  _516
REMARK  210  A    between atoms: _519  and  _521
REMARK  211  A    between atoms: _521  and  _522
REMARK  212  A    between atoms: _521  and  _524
REMARK  213  A    between atoms: _524  and  _525
REMARK  214  A    between atoms: _530  and  _532
REMARK  215  A    between atoms: _532  and  _533
REMARK  216  A    between atoms: _532  and  _535
REMARK  217  A    between atoms: _535  and  _536
REMARK  218  A    between atoms: _539  and  _541
REMARK  219  A    between atoms: _541  and  _542
REMARK  220  A    between atoms: _541  and  _544
REMARK  221  A    between atoms: _544  and  _545
REMARK  222  A    between atoms: _545  and  _546
REMARK  223  A    between atoms: _546  and  _547
REMARK  224  A    between atoms: _556  and  _558
REMARK  225  A    between atoms: _558  and  _559
REMARK  226  A    between atoms: _558  and  _561
REMARK  227  A    between atoms: _561  and  _562
REMARK  228  A    between atoms: _562  and  _563
REMARK  229  A    between atoms: _563  and  _564
REMARK  230  A    between atoms: _573  and  _575
REMARK  231  A    between atoms: _575  and  _576
REMARK  232  A    between atoms: _575  and  _578
REMARK  233  A    between atoms: _578  and  _579
REMARK  234  A    between atoms: _581  and  _583
REMARK  235  A    between atoms: _583  and  _584
REMARK  236  A    between atoms: _583  and  _586
REMARK  237  A    between atoms: _586  and  _587
REMARK  238  A    between atoms: _587  and  _588
REMARK  239  A    between atoms: _593  and  _595
REMARK  240  A    between atoms: _595  and  _596
REMARK  241  A    between atoms: _595  and  _598
REMARK  242  A    between atoms: _598  and  _599
REMARK  243  A    between atoms: _601  and  _603
REMARK  244  A    between atoms: _603  and  _604
REMARK  245  A    between atoms: _603  and  _606
REMARK  246  A    between atoms: _606  and  _607
REMARK  247  A    between atoms: _610  and  _612
REMARK  248  A    between atoms: _612  and  _613
REMARK  249  A    between atoms: _612  and  _615
REMARK  250  A    between atoms: _615  and  _616
REMARK  251  A    between atoms: _619  and  _621
REMARK  252  A    between atoms: _621  and  _622
REMARK  253  A    between atoms: _621  and  _624
REMARK  254  A    between atoms: _627  and  _629
REMARK  255  A    between atoms: _629  and  _630
REMARK  256  A    between atoms: _632  and  _634
REMARK  257  A    between atoms: _634  and  _635
REMARK  258  A    between atoms: _638  and  _640
REMARK  259  A    between atoms: _640  and  _641
REMARK  260  A    between atoms: _640  and  _643
REMARK  261  A    between atoms: _646  and  _648
REMARK  262  A    between atoms: _648  and  _649
REMARK  263  A    between atoms: _648  and  _651
REMARK  264  A    between atoms: _651  and  _652
REMARK  265  A    between atoms: _652  and  _653
REMARK  266  A    between atoms: _655  and  _657
REMARK  267  A    between atoms: _657  and  _658
REMARK  268  A    between atoms: _657  and  _660
REMARK  269  A    between atoms: _660  and  _661
REMARK  270  A    between atoms: _661  and  _662
REMARK                            x       y       z     vdW  Elec       q    Type
REMARK                         _______ _______ _______ _____ _____    ______ ____
ROOT
ATOM      1  O   HOH     1      -6.842   5.875  31.295  0.00  0.00    +0.000 OA
ENDROOT
TORSDOF 0
REMARK  Name = ../refined-set-2016/2g94/2g94_pocket.pdb
REMARK  270 active torsions:
REMARK  status: ('A' for Active; 'I' for Inactive)
REMARK    1  A    between atoms: _1  and  _3
REMARK    2  A    between atoms: _3  and  _4
REMARK    3  A    between atoms: _3  and  _6
REMARK    4  A    between atoms: _6  and  _7
REMARK    5  A    between atoms: _7  and  _8
REMARK    6  A    between atoms: _8  and  _9
REMARK    7  A    between atoms: _9  and  _10
REMARK    8  A    between atoms: _14  and  _16
REMARK    9  A    between atoms: _16  and  _17
REMARK   10  A    between atoms: _16  and  _19
REMARK   11  A    between atoms: _19  and  _20
REMARK   12  A    between atoms: _22  and  _24
REMARK   13  A    between atoms: _24  and  _25
REMARK   14  A    between atoms: _27  and  _29
REMARK   15  A    between atoms: _29  and  _30
REMARK   16  A    between atoms: _29  and  _32
REMARK   17  A    between atoms: _32  and  _33
REMARK   18  A    between atoms: _33  and  _34
REMARK   19  A    between atoms: _39  and  _41
REMARK   20  A    between atoms: _41  and  _42
REMARK   21  A    between atoms: _44  and  _46
REMARK   22  A    between atoms: _46  and  _47
REMARK   23  A    between atoms: _46  and  _49
REMARK   24  A    between atoms: _49  and  _50
REMARK   25  A    between atoms: _55  and  _56
REMARK   26  A    between atoms: _58  and  _60
REMARK   27  A    between atoms: _60  and  _61
REMARK   28  A    between atoms: _60  and  _63
REMARK   29  A    between atoms: _63  and  _64
REMARK   30  A    between atoms: _69  and  _70
REMARK   31  A    between atoms: _72  and  _74
REMARK   32  A    between atoms: _74  and  _75
REMARK   33  A    between atoms: _74  and  _77
REMARK   34  A    between atoms: _77  and  _78
REMARK   35  A    between atoms: _81  and  _83
REMARK   36  A    between atoms: _83  and  _84
REMARK   37  A    between atoms: _83  and  _86
REMARK   38  A    between atoms: _89  and  _91
REMARK   39  A    between atoms: _91  and  _92
REMARK   40  A    between atoms: _91  and  _94
REMARK   41  A    between atoms: _94  and  _95
REMARK   42  A    between atoms: _98  and  _100
REMARK   43  A    between atoms: _100  and  _101
REMARK   44  A    between atoms: _100  and  _103
REMARK   45  A    between atoms: _103  and  _104
REMARK   46  A    between atoms: _107  and  _109
REMARK   47  A    between atoms: _109  and  _110
REMARK   48  A    between atoms: _112  and  _114
REMARK   49  A    between atoms: _114  and  _115
REMARK   50  A    between atoms: _114  and  _117
REMARK   51  A    between atoms: _117  and  _118
REMARK   52  A    between atoms: _120  and  _122
REMARK   53  A    between atoms: _122  and  _123
REMARK   54  A    between atoms: _122  and  _125
REMARK   55  A    between atoms: _125  and  _126
REMARK   56  A    between atoms: _128  and  _130
REMARK   57  A    between atoms: _130  and  _131
REMARK   58  A    between atoms: _130  and  _133
REMARK   59  A    between atoms: _133  and  _134
REMARK   60  A    between atoms: _139  and  _141
REMARK   61  A    between atoms: _141  and  _142
REMARK   62  A    between atoms: _141  and  _144
REMARK   63  A    between atoms: _144  and  _145
REMARK   64  A    between atoms: _150  and  _151
REMARK   65  A    between atoms: _153  and  _155
REMARK   66  A    between atoms: _155  and  _156
REMARK   67  A    between atoms: _155  and  _158
REMARK   68  A    between atoms: _162  and  _163
REMARK   69  A    between atoms: _168  and  _170
REMARK   70  A    between atoms: _170  and  _171
REMARK   71  A    between atoms: _170  and  _173
REMARK   72  A    between atoms: _173  and  _174
REMARK   73  A    between atoms: _179  and  _180
REMARK   74  A    between atoms: _182  and  _184
REMARK   75  A    between atoms: _184  and  _185
REMARK   76  A    between atoms: _184  and  _187
REMARK   77  A    between atoms: _187  and  _188
REMARK   78  A    between atoms: _191  and  _193
REMARK   79  A    between atoms: _193  and  _194
REMARK   80  A    between atoms: _193  and  _196
REMARK   81  A    between atoms: _196  and  _197
REMARK   82  A    between atoms: _197  and  _198
REMARK   83  A    between atoms: _203  and  _205
REMARK   84  A    between atoms: _205  and  _206
REMARK   85  A    between atoms: _208  and  _210
REMARK   86  A    between atoms: _210  and  _211
REMARK   87  A    between atoms: _210  and  _213
REMARK   88  A    between atoms: _213  and  _214
REMARK   89  A    between atoms: _214  and  _215
REMARK   90  A    between atoms: _215  and  _216
REMARK   91  A    between atoms: _216  and  _217
REMARK   92  A    between atoms: _221  and  _223
REMARK   93  A    between atoms: _223  and  _224
REMARK   94  A    between atoms: _223  and  _226
REMARK   95  A    between atoms: _226  and  _227
REMARK   96  A    between atoms: _237  and  _239
REMARK   97  A    between atoms: _239  and  _240
REMARK   98  A    between atoms: _239  and  _242
REMARK   99  A    between atoms: _242  and  _243
REMARK  100  A    between atoms: _246  and  _248
REMARK  101  A    between atoms: _248  and  _249
REMARK  102  A    between atoms: _248  and  _251
REMARK  103  A    between atoms: _251  and  _252
REMARK  104  A    between atoms: _252  and  _253
REMARK  105  A    between atoms: _253  and  _254
REMARK  106  A    between atoms: _254  and  _255
REMARK  107  A    between atoms: _259  and  _261
REMARK  108  A    between atoms: _261  and  _262
REMARK  109  A    between atoms: _261  and  _264
REMARK  110  A    between atoms: _264  and  _265
REMARK  111  A    between atoms: _271  and  _273
REMARK  112  A    between atoms: _273  and  _274
REMARK  113  A    between atoms: _273  and  _276
REMARK  114  A    between atoms: _276  and  _277
REMARK  115  A    between atoms: _283  and  _285
REMARK  116  A    between atoms: _285  and  _286
REMARK  117  A    between atoms: _285  and  _288
REMARK  118  A    between atoms: _288  and  _289
REMARK  119  A    between atoms: _292  and  _294
REMARK  120  A    between atoms: _294  and  _295
REMARK  121  A    between atoms: _294  and  _297
REMARK  122  A    between atoms: _297  and  _298
REMARK  123  A    between atoms: _300  and  _302
REMARK  124  A    between atoms: _302  and  _303
REMARK  125  A    between atoms: _302  and  _305
REMARK  126  A    between atoms: _305  and  _306
REMARK  127  A    between atoms: _316  and  _318
REMARK  128  A    between atoms: _318  and  _319
REMARK  129  A    between atoms: _321  and  _323
REMARK  130  A    between atoms: _323  and  _324
REMARK  131  A    between atoms: _323  and  _326
REMARK  132  A    between atoms: _326  and  _327
REMARK  133  A    between atoms: _330  and  _332
REMARK  134  A    between atoms: _332  and  _333
REMARK  135  A    between atoms: _332  and  _335
REMARK  136  A    between atoms: _335  and  _336
REMARK  137  A    between atoms: _339  and  _341
REMARK  138  A    between atoms: _341  and  _342
REMARK  139  A    between atoms: _341  and  _344
REMARK  140  A    between atoms: _344  and  _345
REMARK  141  A    between atoms: _348  and  _350
REMARK  142  A    between atoms: _350  and  _351
REMARK  143  A    between atoms: _354  and  _356
REMARK  144  A    between atoms: _356  and  _357
REMARK  145  A    between atoms: _356  and  _359
REMARK  146  A    between atoms: _359  and  _360
REMARK  147  A    between atoms: _365  and  _366
REMARK  148  A    between atoms: _368  and  _370
REMARK  149  A    between atoms: _370  and  _371
REMARK  150  A    between atoms: _370  and  _373
REMARK  151  A    between atoms: _373  and  _374
REMARK  152  A    between atoms: _374  and  _375
REMARK  153  A    between atoms: _378  and  _380
REMARK  154  A    between atoms: _380  and  _381
REMARK  155  A    between atoms: _380  and  _383
REMARK  156  A    between atoms: _383  and  _384
REMARK  157  A    between atoms: _387  and  _389
REMARK  158  A    between atoms: _389  and  _390
REMARK  159  A    between atoms: _393  and  _395
REMARK  160  A    between atoms: _395  and  _396
REMARK  161  A    between atoms: _395  and  _398
REMARK  162  A    between atoms: _398  and  _399
REMARK  163  A    between atoms: _399  and  _400
REMARK  164  A    between atoms: _400  and  _401
REMARK  165  A    between atoms: _410  and  _412
REMARK  166  A    between atoms: _412  and  _413
REMARK  167  A    between atoms: _412  and  _415
REMARK  168  A    between atoms: _415  and  _416
REMARK  169  A    between atoms: _419  and  _421
REMARK  170  A    between atoms: _421  and  _422
REMARK  171  A    between atoms: _421  and  _424
REMARK  172  A    between atoms: _424  and  _425
REMARK  173  A    between atoms: _435  and  _437
REMARK  174  A    between atoms: _437  and  _438
REMARK  175  A    between atoms: _437  and  _440
REMARK  176  A    between atoms: _440  and  _441
REMARK  177  A    between atoms: _446  and  _447
REMARK  178  A    between atoms: _449  and  _451
REMARK  179  A    between atoms: _451  and  _452
REMARK  180  A    between atoms: _451  and  _454
REMARK  181  A    between atoms: _454  and  _455
REMARK  182  A    between atoms: _455  and  _456
REMARK  183  A    between atoms: _456  and  _457
REMARK  184  A    between atoms: _457  and  _458
REMARK  185  A    between atoms: _462  and  _464
REMARK  186  A    between atoms: _464  and  _465
REMARK  187  A    between atoms: _464  and  _467
REMARK  188  A    between atoms: _467  and  _468
REMARK  189  A    between atoms: _471  and  _473
REMARK  190  A    between atoms: _473  and  _474
REMARK  191  A    between atoms: _473  and  _476
REMARK  192  A    between atoms: _479  and  _481
REMARK  193  A    between atoms: _481  and  _482
REMARK  194  A    between atoms: _481  and  _484
REMARK  195  A    between atoms: _484  and  _485
REMARK  196  A    between atoms: _488  and  _490
REMARK  197  A    between atoms: _490  and  _491
REMARK  198  A    between atoms: _490  and  _493
REMARK  199  A    between atoms: _493  and  _494
REMARK  200  A    between atoms: _496  and  _498
REMARK  201  A    between atoms: _498  and  _499
REMARK  202  A    between atoms: _501  and  _503
REMARK  203  A    between atoms: _503  and  _504
REMARK  204  A    between atoms: _503  and  _506
REMARK  205  A    between atoms: _506  and  _507
REMARK  206  A    between atoms: _510  and  _512
REMARK  207  A    between atoms: _512  and  _513
REMARK  208  A    between atoms: _512  and  _515
REMARK  209  A    between atoms: _515  and  _516
REMARK  210  A    between atoms: _519  and  _521
REMARK  211  A    between atoms: _521  and  _522
REMARK  212  A    between atoms: _521  and  _524
REMARK  213  A    between atoms: _524  and  _525
REMARK  214  A    between atoms: _530  and  _532
REMARK  215  A    between atoms: _532  and  _533
REMARK  216  A    between atoms: _532  and  _535
REMARK  217  A    between atoms: _535  and  _536
REMARK  218  A    between atoms: _539  and  _541
REMARK  219  A    between atoms: _541  and  _542
REMARK  220  A    between atoms: _541  and  _544
REMARK  221  A    between atoms: _544  and  _545
REMARK  222  A    between atoms: _545  and  _546
REMARK  223  A    between atoms: _546  and  _547
REMARK  224  A    between atoms: _556  and  _558
REMARK  225  A    between atoms: _558  and  _559
REMARK  226  A    between atoms: _558  and  _561
REMARK  227  A    between atoms: _561  and  _562
REMARK  228  A    between atoms: _562  and  _563
REMARK  229  A    between atoms: _563  and  _564
REMARK  230  A    between atoms: _573  and  _575
REMARK  231  A    between atoms: _575  and  _576
REMARK  232  A    between atoms: _575  and  _578
REMARK  233  A    between atoms: _578  and  _579
REMARK  234  A    between atoms: _581  and  _583
REMARK  235  A    between atoms: _583  and  _584
REMARK  236  A    between atoms: _583  and  _586
REMARK  237  A    between atoms: _586  and  _587
REMARK  238  A    between atoms: _587  and  _588
REMARK  239  A    between atoms: _593  and  _595
REMARK  240  A    between atoms: _595  and  _596
REMARK  241  A    between atoms: _595  and  _598
REMARK  242  A    between atoms: _598  and  _599
REMARK  243  A    between atoms: _601  and  _603
REMARK  244  A    between atoms: _603  and  _604
REMARK  245  A    between atoms: _603  and  _606
REMARK  246  A    between atoms: _606  and  _607
REMARK  247  A    between atoms: _610  and  _612
REMARK  248  A    between atoms: _612  and  _613
REMARK  249  A    between atoms: _612  and  _615
REMARK  250  A    between atoms: _615  and  _616
REMARK  251  A    between atoms: _619  and  _621
REMARK  252  A    between atoms: _621  and  _622
REMARK  253  A    between atoms: _621  and  _624
REMARK  254  A    between atoms: _627  and  _629
REMARK  255  A    between atoms: _629  and  _630
REMARK  256  A    between atoms: _632  and  _634
REMARK  257  A    between atoms: _634  and  _635
REMARK  258  A    between atoms: _638  and  _640
REMARK  259  A    between atoms: _640  and  _641
REMARK  260  A    between atoms: _640  and  _643
REMARK  261  A    between atoms: _646  and  _648
REMARK  262  A    between atoms: _648  and  _649
REMARK  263  A    between atoms: _648  and  _651
REMARK  264  A    between atoms: _651  and  _652
REMARK  265  A    between atoms: _652  and  _653
REMARK  266  A    between atoms: _655  and  _657
REMARK  267  A    between atoms: _657  and  _658
REMARK  268  A    between atoms: _657  and  _660
REMARK  269  A    between atoms: _660  and  _661
REMARK  270  A    between atoms: _661  and  _662
REMARK                            x       y       z     vdW  Elec       q    Type
REMARK                         _______ _______ _______ _____ _____    ______ ____
ROOT
ATOM      1  O   HOH     1      -7.118   3.285  30.151  0.00  0.00    +0.000 OA
ENDROOT
TORSDOF 0
REMARK  Name = ../refined-set-2016/2g94/2g94_pocket.pdb
REMARK  270 active torsions:
REMARK  status: ('A' for Active; 'I' for Inactive)
REMARK    1  A    between atoms: _1  and  _3
REMARK    2  A    between atoms: _3  and  _4
REMARK    3  A    between atoms: _3  and  _6
REMARK    4  A    between atoms: _6  and  _7
REMARK    5  A    between atoms: _7  and  _8
REMARK    6  A    between atoms: _8  and  _9
REMARK    7  A    between atoms: _9  and  _10
REMARK    8  A    between atoms: _14  and  _16
REMARK    9  A    between atoms: _16  and  _17
REMARK   10  A    between atoms: _16  and  _19
REMARK   11  A    between atoms: _19  and  _20
REMARK   12  A    between atoms: _22  and  _24
REMARK   13  A    between atoms: _24  and  _25
REMARK   14  A    between atoms: _27  and  _29
REMARK   15  A    between atoms: _29  and  _30
REMARK   16  A    between atoms: _29  and  _32
REMARK   17  A    between atoms: _32  and  _33
REMARK   18  A    between atoms: _33  and  _34
REMARK   19  A    between atoms: _39  and  _41
REMARK   20  A    between atoms: _41  and  _42
REMARK   21  A    between atoms: _44  and  _46
REMARK   22  A    between atoms: _46  and  _47
REMARK   23  A    between atoms: _46  and  _49
REMARK   24  A    between atoms: _49  and  _50
REMARK   25  A    between atoms: _55  and  _56
REMARK   26  A    between atoms: _58  and  _60
REMARK   27  A    between atoms: _60  and  _61
REMARK   28  A    between atoms: _60  and  _63
REMARK   29  A    between atoms: _63  and  _64
REMARK   30  A    between atoms: _69  and  _70
REMARK   31  A    between atoms: _72  and  _74
REMARK   32  A    between atoms: _74  and  _75
REMARK   33  A    between atoms: _74  and  _77
REMARK   34  A    between atoms: _77  and  _78
REMARK   35  A    between atoms: _81  and  _83
REMARK   36  A    between atoms: _83  and  _84
REMARK   37  A    between atoms: _83  and  _86
REMARK   38  A    between atoms: _89  and  _91
REMARK   39  A    between atoms: _91  and  _92
REMARK   40  A    between atoms: _91  and  _94
REMARK   41  A    between atoms: _94  and  _95
REMARK   42  A    between atoms: _98  and  _100
REMARK   43  A    between atoms: _100  and  _101
REMARK   44  A    between atoms: _100  and  _103
REMARK   45  A    between atoms: _103  and  _104
REMARK   46  A    between atoms: _107  and  _109
REMARK   47  A    between atoms: _109  and  _110
REMARK   48  A    between atoms: _112  and  _114
REMARK   49  A    between atoms: _114  and  _115
REMARK   50  A    between atoms: _114  and  _117
REMARK   51  A    between atoms: _117  and  _118
REMARK   52  A    between atoms: _120  and  _122
REMARK   53  A    between atoms: _122  and  _123
REMARK   54  A    between atoms: _122  and  _125
REMARK   55  A    between atoms: _125  and  _126
REMARK   56  A    between atoms: _128  and  _130
REMARK   57  A    between atoms: _130  and  _131
REMARK   58  A    between atoms: _130  and  _133
REMARK   59  A    between atoms: _133  and  _134
REMARK   60  A    between atoms: _139  and  _141
REMARK   61  A    between atoms: _141  and  _142
REMARK   62  A    between atoms: _141  and  _144
REMARK   63  A    between atoms: _144  and  _145
REMARK   64  A    between atoms: _150  and  _151
REMARK   65  A    between atoms: _153  and  _155
REMARK   66  A    between atoms: _155  and  _156
REMARK   67  A    between atoms: _155  and  _158
REMARK   68  A    between atoms: _162  and  _163
REMARK   69  A    between atoms: _168  and  _170
REMARK   70  A    between atoms: _170  and  _171
REMARK   71  A    between atoms: _170  and  _173
REMARK   72  A    between atoms: _173  and  _174
REMARK   73  A    between atoms: _179  and  _180
REMARK   74  A    between atoms: _182  and  _184
REMARK   75  A    between atoms: _184  and  _185
REMARK   76  A    between atoms: _184  and  _187
REMARK   77  A    between atoms: _187  and  _188
REMARK   78  A    between atoms: _191  and  _193
REMARK   79  A    between atoms: _193  and  _194
REMARK   80  A    between atoms: _193  and  _196
REMARK   81  A    between atoms: _196  and  _197
REMARK   82  A    between atoms: _197  and  _198
REMARK   83  A    between atoms: _203  and  _205
REMARK   84  A    between atoms: _205  and  _206
REMARK   85  A    between atoms: _208  and  _210
REMARK   86  A    between atoms: _210  and  _211
REMARK   87  A    between atoms: _210  and  _213
REMARK   88  A    between atoms: _213  and  _214
REMARK   89  A    between atoms: _214  and  _215
REMARK   90  A    between atoms: _215  and  _216
REMARK   91  A    between atoms: _216  and  _217
REMARK   92  A    between atoms: _221  and  _223
REMARK   93  A    between atoms: _223  and  _224
REMARK   94  A    between atoms: _223  and  _226
REMARK   95  A    between atoms: _226  and  _227
REMARK   96  A    between atoms: _237  and  _239
REMARK   97  A    between atoms: _239  and  _240
REMARK   98  A    between atoms: _239  and  _242
REMARK   99  A    between atoms: _242  and  _243
REMARK  100  A    between atoms: _246  and  _248
REMARK  101  A    between atoms: _248  and  _249
REMARK  102  A    between atoms: _248  and  _251
REMARK  103  A    between atoms: _251  and  _252
REMARK  104  A    between atoms: _252  and  _253
REMARK  105  A    between atoms: _253  and  _254
REMARK  106  A    between atoms: _254  and  _255
REMARK  107  A    between atoms: _259  and  _261
REMARK  108  A    between atoms: _261  and  _262
REMARK  109  A    between atoms: _261  and  _264
REMARK  110  A    between atoms: _264  and  _265
REMARK  111  A    between atoms: _271  and  _273
REMARK  112  A    between atoms: _273  and  _274
REMARK  113  A    between atoms: _273  and  _276
REMARK  114  A    between atoms: _276  and  _277
REMARK  115  A    between atoms: _283  and  _285
REMARK  116  A    between atoms: _285  and  _286
REMARK  117  A    between atoms: _285  and  _288
REMARK  118  A    between atoms: _288  and  _289
REMARK  119  A    between atoms: _292  and  _294
REMARK  120  A    between atoms: _294  and  _295
REMARK  121  A    between atoms: _294  and  _297
REMARK  122  A    between atoms: _297  and  _298
REMARK  123  A    between atoms: _300  and  _302
REMARK  124  A    between atoms: _302  and  _303
REMARK  125  A    between atoms: _302  and  _305
REMARK  126  A    between atoms: _305  and  _306
REMARK  127  A    between atoms: _316  and  _318
REMARK  128  A    between atoms: _318  and  _319
REMARK  129  A    between atoms: _321  and  _323
REMARK  130  A    between atoms: _323  and  _324
REMARK  131  A    between atoms: _323  and  _326
REMARK  132  A    between atoms: _326  and  _327
REMARK  133  A    between atoms: _330  and  _332
REMARK  134  A    between atoms: _332  and  _333
REMARK  135  A    between atoms: _332  and  _335
REMARK  136  A    between atoms: _335  and  _336
REMARK  137  A    between atoms: _339  and  _341
REMARK  138  A    between atoms: _341  and  _342
REMARK  139  A    between atoms: _341  and  _344
REMARK  140  A    between atoms: _344  and  _345
REMARK  141  A    between atoms: _348  and  _350
REMARK  142  A    between atoms: _350  and  _351
REMARK  143  A    between atoms: _354  and  _356
REMARK  144  A    between atoms: _356  and  _357
REMARK  145  A    between atoms: _356  and  _359
REMARK  146  A    between atoms: _359  and  _360
REMARK  147  A    between atoms: _365  and  _366
REMARK  148  A    between atoms: _368  and  _370
REMARK  149  A    between atoms: _370  and  _371
REMARK  150  A    between atoms: _370  and  _373
REMARK  151  A    between atoms: _373  and  _374
REMARK  152  A    between atoms: _374  and  _375
REMARK  153  A    between atoms: _378  and  _380
REMARK  154  A    between atoms: _380  and  _381
REMARK  155  A    between atoms: _380  and  _383
REMARK  156  A    between atoms: _383  and  _384
REMARK  157  A    between atoms: _387  and  _389
REMARK  158  A    between atoms: _389  and  _390
REMARK  159  A    between atoms: _393  and  _395
REMARK  160  A    between atoms: _395  and  _396
REMARK  161  A    between atoms: _395  and  _398
REMARK  162  A    between atoms: _398  and  _399
REMARK  163  A    between atoms: _399  and  _400
REMARK  164  A    between atoms: _400  and  _401
REMARK  165  A    between atoms: _410  and  _412
REMARK  166  A    between atoms: _412  and  _413
REMARK  167  A    between atoms: _412  and  _415
REMARK  168  A    between atoms: _415  and  _416
REMARK  169  A    between atoms: _419  and  _421
REMARK  170  A    between atoms: _421  and  _422
REMARK  171  A    between atoms: _421  and  _424
REMARK  172  A    between atoms: _424  and  _425
REMARK  173  A    between atoms: _435  and  _437
REMARK  174  A    between atoms: _437  and  _438
REMARK  175  A    between atoms: _437  and  _440
REMARK  176  A    between atoms: _440  and  _441
REMARK  177  A    between atoms: _446  and  _447
REMARK  178  A    between atoms: _449  and  _451
REMARK  179  A    between atoms: _451  and  _452
REMARK  180  A    between atoms: _451  and  _454
REMARK  181  A    between atoms: _454  and  _455
REMARK  182  A    between atoms: _455  and  _456
REMARK  183  A    between atoms: _456  and  _457
REMARK  184  A    between atoms: _457  and  _458
REMARK  185  A    between atoms: _462  and  _464
REMARK  186  A    between atoms: _464  and  _465
REMARK  187  A    between atoms: _464  and  _467
REMARK  188  A    between atoms: _467  and  _468
REMARK  189  A    between atoms: _471  and  _473
REMARK  190  A    between atoms: _473  and  _474
REMARK  191  A    between atoms: _473  and  _476
REMARK  192  A    between atoms: _479  and  _481
REMARK  193  A    between atoms: _481  and  _482
REMARK  194  A    between atoms: _481  and  _484
REMARK  195  A    between atoms: _484  and  _485
REMARK  196  A    between atoms: _488  and  _490
REMARK  197  A    between atoms: _490  and  _491
REMARK  198  A    between atoms: _490  and  _493
REMARK  199  A    between atoms: _493  and  _494
REMARK  200  A    between atoms: _496  and  _498
REMARK  201  A    between atoms: _498  and  _499
REMARK  202  A    between atoms: _501  and  _503
REMARK  203  A    between atoms: _503  and  _504
REMARK  204  A    between atoms: _503  and  _506
REMARK  205  A    between atoms: _506  and  _507
REMARK  206  A    between atoms: _510  and  _512
REMARK  207  A    between atoms: _512  and  _513
REMARK  208  A    between atoms: _512  and  _515
REMARK  209  A    between atoms: _515  and  _516
REMARK  210  A    between atoms: _519  and  _521
REMARK  211  A    between atoms: _521  and  _522
REMARK  212  A    between atoms: _521  and  _524
REMARK  213  A    between atoms: _524  and  _525
REMARK  214  A    between atoms: _530  and  _532
REMARK  215  A    between atoms: _532  and  _533
REMARK  216  A    between atoms: _532  and  _535
REMARK  217  A    between atoms: _535  and  _536
REMARK  218  A    between atoms: _539  and  _541
REMARK  219  A    between atoms: _541  and  _542
REMARK  220  A    between atoms: _541  and  _544
REMARK  221  A    between atoms: _544  and  _545
REMARK  222  A    between atoms: _545  and  _546
REMARK  223  A    between atoms: _546  and  _547
REMARK  224  A    between atoms: _556  and  _558
REMARK  225  A    between atoms: _558  and  _559
REMARK  226  A    between atoms: _558  and  _561
REMARK  227  A    between atoms: _561  and  _562
REMARK  228  A    between atoms: _562  and  _563
REMARK  229  A    between atoms: _563  and  _564
REMARK  230  A    between atoms: _573  and  _575
REMARK  231  A    between atoms: _575  and  _576
REMARK  232  A    between atoms: _575  and  _578
REMARK  233  A    between atoms: _578  and  _579
REMARK  234  A    between atoms: _581  and  _583
REMARK  235  A    between atoms: _583  and  _584
REMARK  236  A    between atoms: _583  and  _586
REMARK  237  A    between atoms: _586  and  _587
REMARK  238  A    between atoms: _587  and  _588
REMARK  239  A    between atoms: _593  and  _595
REMARK  240  A    between atoms: _595  and  _596
REMARK  241  A    between atoms: _595  and  _598
REMARK  242  A    between atoms: _598  and  _599
REMARK  243  A    between atoms: _601  and  _603
REMARK  244  A    between atoms: _603  and  _604
REMARK  245  A    between atoms: _603  and  _606
REMARK  246  A    between atoms: _606  and  _607
REMARK  247  A    between atoms: _610  and  _612
REMARK  248  A    between atoms: _612  and  _613
REMARK  249  A    between atoms: _612  and  _615
REMARK  250  A    between atoms: _615  and  _616
REMARK  251  A    between atoms: _619  and  _621
REMARK  252  A    between atoms: _621  and  _622
REMARK  253  A    between atoms: _621  and  _624
REMARK  254  A    between atoms: _627  and  _629
REMARK  255  A    between atoms: _629  and  _630
REMARK  256  A    between atoms: _632  and  _634
REMARK  257  A    between atoms: _634  and  _635
REMARK  258  A    between atoms: _638  and  _640
REMARK  259  A    between atoms: _640  and  _641
REMARK  260  A    between atoms: _640  and  _643
REMARK  261  A    between atoms: _646  and  _648
REMARK  262  A    between atoms: _648  and  _649
REMARK  263  A    between atoms: _648  and  _651
REMARK  264  A    between atoms: _651  and  _652
REMARK  265  A    between atoms: _652  and  _653
REMARK  266  A    between atoms: _655  and  _657
REMARK  267  A    between atoms: _657  and  _658
REMARK  268  A    between atoms: _657  and  _660
REMARK  269  A    between atoms: _660  and  _661
REMARK  270  A    between atoms: _661  and  _662
REMARK                            x       y       z     vdW  Elec       q    Type
REMARK                         _______ _______ _______ _____ _____    ______ ____
ROOT
ATOM      1  O   HOH     1     -15.452  -2.339  34.154  0.00  0.00    +0.000 OA
ENDROOT
TORSDOF 0
REMARK  Name = ../refined-set-2016/2g94/2g94_pocket.pdb
REMARK  270 active torsions:
REMARK  status: ('A' for Active; 'I' for Inactive)
REMARK    1  A    between atoms: _1  and  _3
REMARK    2  A    between atoms: _3  and  _4
REMARK    3  A    between atoms: _3  and  _6
REMARK    4  A    between atoms: _6  and  _7
REMARK    5  A    between atoms: _7  and  _8
REMARK    6  A    between atoms: _8  and  _9
REMARK    7  A    between atoms: _9  and  _10
REMARK    8  A    between atoms: _14  and  _16
REMARK    9  A    between atoms: _16  and  _17
REMARK   10  A    between atoms: _16  and  _19
REMARK   11  A    between atoms: _19  and  _20
REMARK   12  A    between atoms: _22  and  _24
REMARK   13  A    between atoms: _24  and  _25
REMARK   14  A    between atoms: _27  and  _29
REMARK   15  A    between atoms: _29  and  _30
REMARK   16  A    between atoms: _29  and  _32
REMARK   17  A    between atoms: _32  and  _33
REMARK   18  A    between atoms: _33  and  _34
REMARK   19  A    between atoms: _39  and  _41
REMARK   20  A    between atoms: _41  and  _42
REMARK   21  A    between atoms: _44  and  _46
REMARK   22  A    between atoms: _46  and  _47
REMARK   23  A    between atoms: _46  and  _49
REMARK   24  A    between atoms: _49  and  _50
REMARK   25  A    between atoms: _55  and  _56
REMARK   26  A    between atoms: _58  and  _60
REMARK   27  A    between atoms: _60  and  _61
REMARK   28  A    between atoms: _60  and  _63
REMARK   29  A    between atoms: _63  and  _64
REMARK   30  A    between atoms: _69  and  _70
REMARK   31  A    between atoms: _72  and  _74
REMARK   32  A    between atoms: _74  and  _75
REMARK   33  A    between atoms: _74  and  _77
REMARK   34  A    between atoms: _77  and  _78
REMARK   35  A    between atoms: _81  and  _83
REMARK   36  A    between atoms: _83  and  _84
REMARK   37  A    between atoms: _83  and  _86
REMARK   38  A    between atoms: _89  and  _91
REMARK   39  A    between atoms: _91  and  _92
REMARK   40  A    between atoms: _91  and  _94
REMARK   41  A    between atoms: _94  and  _95
REMARK   42  A    between atoms: _98  and  _100
REMARK   43  A    between atoms: _100  and  _101
REMARK   44  A    between atoms: _100  and  _103
REMARK   45  A    between atoms: _103  and  _104
REMARK   46  A    between atoms: _107  and  _109
REMARK   47  A    between atoms: _109  and  _110
REMARK   48  A    between atoms: _112  and  _114
REMARK   49  A    between atoms: _114  and  _115
REMARK   50  A    between atoms: _114  and  _117
REMARK   51  A    between atoms: _117  and  _118
REMARK   52  A    between atoms: _120  and  _122
REMARK   53  A    between atoms: _122  and  _123
REMARK   54  A    between atoms: _122  and  _125
REMARK   55  A    between atoms: _125  and  _126
REMARK   56  A    between atoms: _128  and  _130
REMARK   57  A    between atoms: _130  and  _131
REMARK   58  A    between atoms: _130  and  _133
REMARK   59  A    between atoms: _133  and  _134
REMARK   60  A    between atoms: _139  and  _141
REMARK   61  A    between atoms: _141  and  _142
REMARK   62  A    between atoms: _141  and  _144
REMARK   63  A    between atoms: _144  and  _145
REMARK   64  A    between atoms: _150  and  _151
REMARK   65  A    between atoms: _153  and  _155
REMARK   66  A    between atoms: _155  and  _156
REMARK   67  A    between atoms: _155  and  _158
REMARK   68  A    between atoms: _162  and  _163
REMARK   69  A    between atoms: _168  and  _170
REMARK   70  A    between atoms: _170  and  _171
REMARK   71  A    between atoms: _170  and  _173
REMARK   72  A    between atoms: _173  and  _174
REMARK   73  A    between atoms: _179  and  _180
REMARK   74  A    between atoms: _182  and  _184
REMARK   75  A    between atoms: _184  and  _185
REMARK   76  A    between atoms: _184  and  _187
REMARK   77  A    between atoms: _187  and  _188
REMARK   78  A    between atoms: _191  and  _193
REMARK   79  A    between atoms: _193  and  _194
REMARK   80  A    between atoms: _193  and  _196
REMARK   81  A    between atoms: _196  and  _197
REMARK   82  A    between atoms: _197  and  _198
REMARK   83  A    between atoms: _203  and  _205
REMARK   84  A    between atoms: _205  and  _206
REMARK   85  A    between atoms: _208  and  _210
REMARK   86  A    between atoms: _210  and  _211
REMARK   87  A    between atoms: _210  and  _213
REMARK   88  A    between atoms: _213  and  _214
REMARK   89  A    between atoms: _214  and  _215
REMARK   90  A    between atoms: _215  and  _216
REMARK   91  A    between atoms: _216  and  _217
REMARK   92  A    between atoms: _221  and  _223
REMARK   93  A    between atoms: _223  and  _224
REMARK   94  A    between atoms: _223  and  _226
REMARK   95  A    between atoms: _226  and  _227
REMARK   96  A    between atoms: _237  and  _239
REMARK   97  A    between atoms: _239  and  _240
REMARK   98  A    between atoms: _239  and  _242
REMARK   99  A    between atoms: _242  and  _243
REMARK  100  A    between atoms: _246  and  _248
REMARK  101  A    between atoms: _248  and  _249
REMARK  102  A    between atoms: _248  and  _251
REMARK  103  A    between atoms: _251  and  _252
REMARK  104  A    between atoms: _252  and  _253
REMARK  105  A    between atoms: _253  and  _254
REMARK  106  A    between atoms: _254  and  _255
REMARK  107  A    between atoms: _259  and  _261
REMARK  108  A    between atoms: _261  and  _262
REMARK  109  A    between atoms: _261  and  _264
REMARK  110  A    between atoms: _264  and  _265
REMARK  111  A    between atoms: _271  and  _273
REMARK  112  A    between atoms: _273  and  _274
REMARK  113  A    between atoms: _273  and  _276
REMARK  114  A    between atoms: _276  and  _277
REMARK  115  A    between atoms: _283  and  _285
REMARK  116  A    between atoms: _285  and  _286
REMARK  117  A    between atoms: _285  and  _288
REMARK  118  A    between atoms: _288  and  _289
REMARK  119  A    between atoms: _292  and  _294
REMARK  120  A    between atoms: _294  and  _295
REMARK  121  A    between atoms: _294  and  _297
REMARK  122  A    between atoms: _297  and  _298
REMARK  123  A    between atoms: _300  and  _302
REMARK  124  A    between atoms: _302  and  _303
REMARK  125  A    between atoms: _302  and  _305
REMARK  126  A    between atoms: _305  and  _306
REMARK  127  A    between atoms: _316  and  _318
REMARK  128  A    between atoms: _318  and  _319
REMARK  129  A    between atoms: _321  and  _323
REMARK  130  A    between atoms: _323  and  _324
REMARK  131  A    between atoms: _323  and  _326
REMARK  132  A    between atoms: _326  and  _327
REMARK  133  A    between atoms: _330  and  _332
REMARK  134  A    between atoms: _332  and  _333
REMARK  135  A    between atoms: _332  and  _335
REMARK  136  A    between atoms: _335  and  _336
REMARK  137  A    between atoms: _339  and  _341
REMARK  138  A    between atoms: _341  and  _342
REMARK  139  A    between atoms: _341  and  _344
REMARK  140  A    between atoms: _344  and  _345
REMARK  141  A    between atoms: _348  and  _350
REMARK  142  A    between atoms: _350  and  _351
REMARK  143  A    between atoms: _354  and  _356
REMARK  144  A    between atoms: _356  and  _357
REMARK  145  A    between atoms: _356  and  _359
REMARK  146  A    between atoms: _359  and  _360
REMARK  147  A    between atoms: _365  and  _366
REMARK  148  A    between atoms: _368  and  _370
REMARK  149  A    between atoms: _370  and  _371
REMARK  150  A    between atoms: _370  and  _373
REMARK  151  A    between atoms: _373  and  _374
REMARK  152  A    between atoms: _374  and  _375
REMARK  153  A    between atoms: _378  and  _380
REMARK  154  A    between atoms: _380  and  _381
REMARK  155  A    between atoms: _380  and  _383
REMARK  156  A    between atoms: _383  and  _384
REMARK  157  A    between atoms: _387  and  _389
REMARK  158  A    between atoms: _389  and  _390
REMARK  159  A    between atoms: _393  and  _395
REMARK  160  A    between atoms: _395  and  _396
REMARK  161  A    between atoms: _395  and  _398
REMARK  162  A    between atoms: _398  and  _399
REMARK  163  A    between atoms: _399  and  _400
REMARK  164  A    between atoms: _400  and  _401
REMARK  165  A    between atoms: _410  and  _412
REMARK  166  A    between atoms: _412  and  _413
REMARK  167  A    between atoms: _412  and  _415
REMARK  168  A    between atoms: _415  and  _416
REMARK  169  A    between atoms: _419  and  _421
REMARK  170  A    between atoms: _421  and  _422
REMARK  171  A    between atoms: _421  and  _424
REMARK  172  A    between atoms: _424  and  _425
REMARK  173  A    between atoms: _435  and  _437
REMARK  174  A    between atoms: _437  and  _438
REMARK  175  A    between atoms: _437  and  _440
REMARK  176  A    between atoms: _440  and  _441
REMARK  177  A    between atoms: _446  and  _447
REMARK  178  A    between atoms: _449  and  _451
REMARK  179  A    between atoms: _451  and  _452
REMARK  180  A    between atoms: _451  and  _454
REMARK  181  A    between atoms: _454  and  _455
REMARK  182  A    between atoms: _455  and  _456
REMARK  183  A    between atoms: _456  and  _457
REMARK  184  A    between atoms: _457  and  _458
REMARK  185  A    between atoms: _462  and  _464
REMARK  186  A    between atoms: _464  and  _465
REMARK  187  A    between atoms: _464  and  _467
REMARK  188  A    between atoms: _467  and  _468
REMARK  189  A    between atoms: _471  and  _473
REMARK  190  A    between atoms: _473  and  _474
REMARK  191  A    between atoms: _473  and  _476
REMARK  192  A    between atoms: _479  and  _481
REMARK  193  A    between atoms: _481  and  _482
REMARK  194  A    between atoms: _481  and  _484
REMARK  195  A    between atoms: _484  and  _485
REMARK  196  A    between atoms: _488  and  _490
REMARK  197  A    between atoms: _490  and  _491
REMARK  198  A    between atoms: _490  and  _493
REMARK  199  A    between atoms: _493  and  _494
REMARK  200  A    between atoms: _496  and  _498
REMARK  201  A    between atoms: _498  and  _499
REMARK  202  A    between atoms: _501  and  _503
REMARK  203  A    between atoms: _503  and  _504
REMARK  204  A    between atoms: _503  and  _506
REMARK  205  A    between atoms: _506  and  _507
REMARK  206  A    between atoms: _510  and  _512
REMARK  207  A    between atoms: _512  and  _513
REMARK  208  A    between atoms: _512  and  _515
REMARK  209  A    between atoms: _515  and  _516
REMARK  210  A    between atoms: _519  and  _521
REMARK  211  A    between atoms: _521  and  _522
REMARK  212  A    between atoms: _521  and  _524
REMARK  213  A    between atoms: _524  and  _525
REMARK  214  A    between atoms: _530  and  _532
REMARK  215  A    between atoms: _532  and  _533
REMARK  216  A    between atoms: _532  and  _535
REMARK  217  A    between atoms: _535  and  _536
REMARK  218  A    between atoms: _539  and  _541
REMARK  219  A    between atoms: _541  and  _542
REMARK  220  A    between atoms: _541  and  _544
REMARK  221  A    between atoms: _544  and  _545
REMARK  222  A    between atoms: _545  and  _546
REMARK  223  A    between atoms: _546  and  _547
REMARK  224  A    between atoms: _556  and  _558
REMARK  225  A    between atoms: _558  and  _559
REMARK  226  A    between atoms: _558  and  _561
REMARK  227  A    between atoms: _561  and  _562
REMARK  228  A    between atoms: _562  and  _563
REMARK  229  A    between atoms: _563  and  _564
REMARK  230  A    between atoms: _573  and  _575
REMARK  231  A    between atoms: _575  and  _576
REMARK  232  A    between atoms: _575  and  _578
REMARK  233  A    between atoms: _578  and  _579
REMARK  234  A    between atoms: _581  and  _583
REMARK  235  A    between atoms: _583  and  _584
REMARK  236  A    between atoms: _583  and  _586
REMARK  237  A    between atoms: _586  and  _587
REMARK  238  A    between atoms: _587  and  _588
REMARK  239  A    between atoms: _593  and  _595
REMARK  240  A    between atoms: _595  and  _596
REMARK  241  A    between atoms: _595  and  _598
REMARK  242  A    between atoms: _598  and  _599
REMARK  243  A    between atoms: _601  and  _603
REMARK  244  A    between atoms: _603  and  _604
REMARK  245  A    between atoms: _603  and  _606
REMARK  246  A    between atoms: _606  and  _607
REMARK  247  A    between atoms: _610  and  _612
REMARK  248  A    between atoms: _612  and  _613
REMARK  249  A    between atoms: _612  and  _615
REMARK  250  A    between atoms: _615  and  _616
REMARK  251  A    between atoms: _619  and  _621
REMARK  252  A    between atoms: _621  and  _622
REMARK  253  A    between atoms: _621  and  _624
REMARK  254  A    between atoms: _627  and  _629
REMARK  255  A    between atoms: _629  and  _630
REMARK  256  A    between atoms: _632  and  _634
REMARK  257  A    between atoms: _634  and  _635
REMARK  258  A    between atoms: _638  and  _640
REMARK  259  A    between atoms: _640  and  _641
REMARK  260  A    between atoms: _640  and  _643
REMARK  261  A    between atoms: _646  and  _648
REMARK  262  A    between atoms: _648  and  _649
REMARK  263  A    between atoms: _648  and  _651
REMARK  264  A    between atoms: _651  and  _652
REMARK  265  A    between atoms: _652  and  _653
REMARK  266  A    between atoms: _655  and  _657
REMARK  267  A    between atoms: _657  and  _658
REMARK  268  A    between atoms: _657  and  _660
REMARK  269  A    between atoms: _660  and  _661
REMARK  270  A    between atoms: _661  and  _662
REMARK                            x       y       z     vdW  Elec       q    Type
REMARK                         _______ _______ _______ _____ _____    ______ ____
ROOT
ATOM      1  O   HOH     1       7.792  -0.674  26.979  0.00  0.00    +0.000 OA
ENDROOT
TORSDOF 0
REMARK  Name = ../refined-set-2016/2g94/2g94_pocket.pdb
REMARK  270 active torsions:
REMARK  status: ('A' for Active; 'I' for Inactive)
REMARK    1  A    between atoms: _1  and  _3
REMARK    2  A    between atoms: _3  and  _4
REMARK    3  A    between atoms: _3  and  _6
REMARK    4  A    between atoms: _6  and  _7
REMARK    5  A    between atoms: _7  and  _8
REMARK    6  A    between atoms: _8  and  _9
REMARK    7  A    between atoms: _9  and  _10
REMARK    8  A    between atoms: _14  and  _16
REMARK    9  A    between atoms: _16  and  _17
REMARK   10  A    between atoms: _16  and  _19
REMARK   11  A    between atoms: _19  and  _20
REMARK   12  A    between atoms: _22  and  _24
REMARK   13  A    between atoms: _24  and  _25
REMARK   14  A    between atoms: _27  and  _29
REMARK   15  A    between atoms: _29  and  _30
REMARK   16  A    between atoms: _29  and  _32
REMARK   17  A    between atoms: _32  and  _33
REMARK   18  A    between atoms: _33  and  _34
REMARK   19  A    between atoms: _39  and  _41
REMARK   20  A    between atoms: _41  and  _42
REMARK   21  A    between atoms: _44  and  _46
REMARK   22  A    between atoms: _46  and  _47
REMARK   23  A    between atoms: _46  and  _49
REMARK   24  A    between atoms: _49  and  _50
REMARK   25  A    between atoms: _55  and  _56
REMARK   26  A    between atoms: _58  and  _60
REMARK   27  A    between atoms: _60  and  _61
REMARK   28  A    between atoms: _60  and  _63
REMARK   29  A    between atoms: _63  and  _64
REMARK   30  A    between atoms: _69  and  _70
REMARK   31  A    between atoms: _72  and  _74
REMARK   32  A    between atoms: _74  and  _75
REMARK   33  A    between atoms: _74  and  _77
REMARK   34  A    between atoms: _77  and  _78
REMARK   35  A    between atoms: _81  and  _83
REMARK   36  A    between atoms: _83  and  _84
REMARK   37  A    between atoms: _83  and  _86
REMARK   38  A    between atoms: _89  and  _91
REMARK   39  A    between atoms: _91  and  _92
REMARK   40  A    between atoms: _91  and  _94
REMARK   41  A    between atoms: _94  and  _95
REMARK   42  A    between atoms: _98  and  _100
REMARK   43  A    between atoms: _100  and  _101
REMARK   44  A    between atoms: _100  and  _103
REMARK   45  A    between atoms: _103  and  _104
REMARK   46  A    between atoms: _107  and  _109
REMARK   47  A    between atoms: _109  and  _110
REMARK   48  A    between atoms: _112  and  _114
REMARK   49  A    between atoms: _114  and  _115
REMARK   50  A    between atoms: _114  and  _117
REMARK   51  A    between atoms: _117  and  _118
REMARK   52  A    between atoms: _120  and  _122
REMARK   53  A    between atoms: _122  and  _123
REMARK   54  A    between atoms: _122  and  _125
REMARK   55  A    between atoms: _125  and  _126
REMARK   56  A    between atoms: _128  and  _130
REMARK   57  A    between atoms: _130  and  _131
REMARK   58  A    between atoms: _130  and  _133
REMARK   59  A    between atoms: _133  and  _134
REMARK   60  A    between atoms: _139  and  _141
REMARK   61  A    between atoms: _141  and  _142
REMARK   62  A    between atoms: _141  and  _144
REMARK   63  A    between atoms: _144  and  _145
REMARK   64  A    between atoms: _150  and  _151
REMARK   65  A    between atoms: _153  and  _155
REMARK   66  A    between atoms: _155  and  _156
REMARK   67  A    between atoms: _155  and  _158
REMARK   68  A    between atoms: _162  and  _163
REMARK   69  A    between atoms: _168  and  _170
REMARK   70  A    between atoms: _170  and  _171
REMARK   71  A    between atoms: _170  and  _173
REMARK   72  A    between atoms: _173  and  _174
REMARK   73  A    between atoms: _179  and  _180
REMARK   74  A    between atoms: _182  and  _184
REMARK   75  A    between atoms: _184  and  _185
REMARK   76  A    between atoms: _184  and  _187
REMARK   77  A    between atoms: _187  and  _188
REMARK   78  A    between atoms: _191  and  _193
REMARK   79  A    between atoms: _193  and  _194
REMARK   80  A    between atoms: _193  and  _196
REMARK   81  A    between atoms: _196  and  _197
REMARK   82  A    between atoms: _197  and  _198
REMARK   83  A    between atoms: _203  and  _205
REMARK   84  A    between atoms: _205  and  _206
REMARK   85  A    between atoms: _208  and  _210
REMARK   86  A    between atoms: _210  and  _211
REMARK   87  A    between atoms: _210  and  _213
REMARK   88  A    between atoms: _213  and  _214
REMARK   89  A    between atoms: _214  and  _215
REMARK   90  A    between atoms: _215  and  _216
REMARK   91  A    between atoms: _216  and  _217
REMARK   92  A    between atoms: _221  and  _223
REMARK   93  A    between atoms: _223  and  _224
REMARK   94  A    between atoms: _223  and  _226
REMARK   95  A    between atoms: _226  and  _227
REMARK   96  A    between atoms: _237  and  _239
REMARK   97  A    between atoms: _239  and  _240
REMARK   98  A    between atoms: _239  and  _242
REMARK   99  A    between atoms: _242  and  _243
REMARK  100  A    between atoms: _246  and  _248
REMARK  101  A    between atoms: _248  and  _249
REMARK  102  A    between atoms: _248  and  _251
REMARK  103  A    between atoms: _251  and  _252
REMARK  104  A    between atoms: _252  and  _253
REMARK  105  A    between atoms: _253  and  _254
REMARK  106  A    between atoms: _254  and  _255
REMARK  107  A    between atoms: _259  and  _261
REMARK  108  A    between atoms: _261  and  _262
REMARK  109  A    between atoms: _261  and  _264
REMARK  110  A    between atoms: _264  and  _265
REMARK  111  A    between atoms: _271  and  _273
REMARK  112  A    between atoms: _273  and  _274
REMARK  113  A    between atoms: _273  and  _276
REMARK  114  A    between atoms: _276  and  _277
REMARK  115  A    between atoms: _283  and  _285
REMARK  116  A    between atoms: _285  and  _286
REMARK  117  A    between atoms: _285  and  _288
REMARK  118  A    between atoms: _288  and  _289
REMARK  119  A    between atoms: _292  and  _294
REMARK  120  A    between atoms: _294  and  _295
REMARK  121  A    between atoms: _294  and  _297
REMARK  122  A    between atoms: _297  and  _298
REMARK  123  A    between atoms: _300  and  _302
REMARK  124  A    between atoms: _302  and  _303
REMARK  125  A    between atoms: _302  and  _305
REMARK  126  A    between atoms: _305  and  _306
REMARK  127  A    between atoms: _316  and  _318
REMARK  128  A    between atoms: _318  and  _319
REMARK  129  A    between atoms: _321  and  _323
REMARK  130  A    between atoms: _323  and  _324
REMARK  131  A    between atoms: _323  and  _326
REMARK  132  A    between atoms: _326  and  _327
REMARK  133  A    between atoms: _330  and  _332
REMARK  134  A    between atoms: _332  and  _333
REMARK  135  A    between atoms: _332  and  _335
REMARK  136  A    between atoms: _335  and  _336
REMARK  137  A    between atoms: _339  and  _341
REMARK  138  A    between atoms: _341  and  _342
REMARK  139  A    between atoms: _341  and  _344
REMARK  140  A    between atoms: _344  and  _345
REMARK  141  A    between atoms: _348  and  _350
REMARK  142  A    between atoms: _350  and  _351
REMARK  143  A    between atoms: _354  and  _356
REMARK  144  A    between atoms: _356  and  _357
REMARK  145  A    between atoms: _356  and  _359
REMARK  146  A    between atoms: _359  and  _360
REMARK  147  A    between atoms: _365  and  _366
REMARK  148  A    between atoms: _368  and  _370
REMARK  149  A    between atoms: _370  and  _371
REMARK  150  A    between atoms: _370  and  _373
REMARK  151  A    between atoms: _373  and  _374
REMARK  152  A    between atoms: _374  and  _375
REMARK  153  A    between atoms: _378  and  _380
REMARK  154  A    between atoms: _380  and  _381
REMARK  155  A    between atoms: _380  and  _383
REMARK  156  A    between atoms: _383  and  _384
REMARK  157  A    between atoms: _387  and  _389
REMARK  158  A    between atoms: _389  and  _390
REMARK  159  A    between atoms: _393  and  _395
REMARK  160  A    between atoms: _395  and  _396
REMARK  161  A    between atoms: _395  and  _398
REMARK  162  A    between atoms: _398  and  _399
REMARK  163  A    between atoms: _399  and  _400
REMARK  164  A    between atoms: _400  and  _401
REMARK  165  A    between atoms: _410  and  _412
REMARK  166  A    between atoms: _412  and  _413
REMARK  167  A    between atoms: _412  and  _415
REMARK  168  A    between atoms: _415  and  _416
REMARK  169  A    between atoms: _419  and  _421
REMARK  170  A    between atoms: _421  and  _422
REMARK  171  A    between atoms: _421  and  _424
REMARK  172  A    between atoms: _424  and  _425
REMARK  173  A    between atoms: _435  and  _437
REMARK  174  A    between atoms: _437  and  _438
REMARK  175  A    between atoms: _437  and  _440
REMARK  176  A    between atoms: _440  and  _441
REMARK  177  A    between atoms: _446  and  _447
REMARK  178  A    between atoms: _449  and  _451
REMARK  179  A    between atoms: _451  and  _452
REMARK  180  A    between atoms: _451  and  _454
REMARK  181  A    between atoms: _454  and  _455
REMARK  182  A    between atoms: _455  and  _456
REMARK  183  A    between atoms: _456  and  _457
REMARK  184  A    between atoms: _457  and  _458
REMARK  185  A    between atoms: _462  and  _464
REMARK  186  A    between atoms: _464  and  _465
REMARK  187  A    between atoms: _464  and  _467
REMARK  188  A    between atoms: _467  and  _468
REMARK  189  A    between atoms: _471  and  _473
REMARK  190  A    between atoms: _473  and  _474
REMARK  191  A    between atoms: _473  and  _476
REMARK  192  A    between atoms: _479  and  _481
REMARK  193  A    between atoms: _481  and  _482
REMARK  194  A    between atoms: _481  and  _484
REMARK  195  A    between atoms: _484  and  _485
REMARK  196  A    between atoms: _488  and  _490
REMARK  197  A    between atoms: _490  and  _491
REMARK  198  A    between atoms: _490  and  _493
REMARK  199  A    between atoms: _493  and  _494
REMARK  200  A    between atoms: _496  and  _498
REMARK  201  A    between atoms: _498  and  _499
REMARK  202  A    between atoms: _501  and  _503
REMARK  203  A    between atoms: _503  and  _504
REMARK  204  A    between atoms: _503  and  _506
REMARK  205  A    between atoms: _506  and  _507
REMARK  206  A    between atoms: _510  and  _512
REMARK  207  A    between atoms: _512  and  _513
REMARK  208  A    between atoms: _512  and  _515
REMARK  209  A    between atoms: _515  and  _516
REMARK  210  A    between atoms: _519  and  _521
REMARK  211  A    between atoms: _521  and  _522
REMARK  212  A    between atoms: _521  and  _524
REMARK  213  A    between atoms: _524  and  _525
REMARK  214  A    between atoms: _530  and  _532
REMARK  215  A    between atoms: _532  and  _533
REMARK  216  A    between atoms: _532  and  _535
REMARK  217  A    between atoms: _535  and  _536
REMARK  218  A    between atoms: _539  and  _541
REMARK  219  A    between atoms: _541  and  _542
REMARK  220  A    between atoms: _541  and  _544
REMARK  221  A    between atoms: _544  and  _545
REMARK  222  A    between atoms: _545  and  _546
REMARK  223  A    between atoms: _546  and  _547
REMARK  224  A    between atoms: _556  and  _558
REMARK  225  A    between atoms: _558  and  _559
REMARK  226  A    between atoms: _558  and  _561
REMARK  227  A    between atoms: _561  and  _562
REMARK  228  A    between atoms: _562  and  _563
REMARK  229  A    between atoms: _563  and  _564
REMARK  230  A    between atoms: _573  and  _575
REMARK  231  A    between atoms: _575  and  _576
REMARK  232  A    between atoms: _575  and  _578
REMARK  233  A    between atoms: _578  and  _579
REMARK  234  A    between atoms: _581  and  _583
REMARK  235  A    between atoms: _583  and  _584
REMARK  236  A    between atoms: _583  and  _586
REMARK  237  A    between atoms: _586  and  _587
REMARK  238  A    between atoms: _587  and  _588
REMARK  239  A    between atoms: _593  and  _595
REMARK  240  A    between atoms: _595  and  _596
REMARK  241  A    between atoms: _595  and  _598
REMARK  242  A    between atoms: _598  and  _599
REMARK  243  A    between atoms: _601  and  _603
REMARK  244  A    between atoms: _603  and  _604
REMARK  245  A    between atoms: _603  and  _606
REMARK  246  A    between atoms: _606  and  _607
REMARK  247  A    between atoms: _610  and  _612
REMARK  248  A    between atoms: _612  and  _613
REMARK  249  A    between atoms: _612  and  _615
REMARK  250  A    between atoms: _615  and  _616
REMARK  251  A    between atoms: _619  and  _621
REMARK  252  A    between atoms: _621  and  _622
REMARK  253  A    between atoms: _621  and  _624
REMARK  254  A    between atoms: _627  and  _629
REMARK  255  A    between atoms: _629  and  _630
REMARK  256  A    between atoms: _632  and  _634
REMARK  257  A    between atoms: _634  and  _635
REMARK  258  A    between atoms: _638  and  _640
REMARK  259  A    between atoms: _640  and  _641
REMARK  260  A    between atoms: _640  and  _643
REMARK  261  A    between atoms: _646  and  _648
REMARK  262  A    between atoms: _648  and  _649
REMARK  263  A    between atoms: _648  and  _651
REMARK  264  A    between atoms: _651  and  _652
REMARK  265  A    between atoms: _652  and  _653
REMARK  266  A    between atoms: _655  and  _657
REMARK  267  A    between atoms: _657  and  _658
REMARK  268  A    between atoms: _657  and  _660
REMARK  269  A    between atoms: _660  and  _661
REMARK  270  A    between atoms: _661  and  _662
REMARK                            x       y       z     vdW  Elec       q    Type
REMARK                         _______ _______ _______ _____ _____    ______ ____
ROOT
ATOM      1  O   HOH     1       2.512  -0.668  28.456  0.00  0.00    +0.000 OA
ENDROOT
TORSDOF 0
REMARK  Name = ../refined-set-2016/2g94/2g94_pocket.pdb
REMARK  270 active torsions:
REMARK  status: ('A' for Active; 'I' for Inactive)
REMARK    1  A    between atoms: _1  and  _3
REMARK    2  A    between atoms: _3  and  _4
REMARK    3  A    between atoms: _3  and  _6
REMARK    4  A    between atoms: _6  and  _7
REMARK    5  A    between atoms: _7  and  _8
REMARK    6  A    between atoms: _8  and  _9
REMARK    7  A    between atoms: _9  and  _10
REMARK    8  A    between atoms: _14  and  _16
REMARK    9  A    between atoms: _16  and  _17
REMARK   10  A    between atoms: _16  and  _19
REMARK   11  A    between atoms: _19  and  _20
REMARK   12  A    between atoms: _22  and  _24
REMARK   13  A    between atoms: _24  and  _25
REMARK   14  A    between atoms: _27  and  _29
REMARK   15  A    between atoms: _29  and  _30
REMARK   16  A    between atoms: _29  and  _32
REMARK   17  A    between atoms: _32  and  _33
REMARK   18  A    between atoms: _33  and  _34
REMARK   19  A    between atoms: _39  and  _41
REMARK   20  A    between atoms: _41  and  _42
REMARK   21  A    between atoms: _44  and  _46
REMARK   22  A    between atoms: _46  and  _47
REMARK   23  A    between atoms: _46  and  _49
REMARK   24  A    between atoms: _49  and  _50
REMARK   25  A    between atoms: _55  and  _56
REMARK   26  A    between atoms: _58  and  _60
REMARK   27  A    between atoms: _60  and  _61
REMARK   28  A    between atoms: _60  and  _63
REMARK   29  A    between atoms: _63  and  _64
REMARK   30  A    between atoms: _69  and  _70
REMARK   31  A    between atoms: _72  and  _74
REMARK   32  A    between atoms: _74  and  _75
REMARK   33  A    between atoms: _74  and  _77
REMARK   34  A    between atoms: _77  and  _78
REMARK   35  A    between atoms: _81  and  _83
REMARK   36  A    between atoms: _83  and  _84
REMARK   37  A    between atoms: _83  and  _86
REMARK   38  A    between atoms: _89  and  _91
REMARK   39  A    between atoms: _91  and  _92
REMARK   40  A    between atoms: _91  and  _94
REMARK   41  A    between atoms: _94  and  _95
REMARK   42  A    between atoms: _98  and  _100
REMARK   43  A    between atoms: _100  and  _101
REMARK   44  A    between atoms: _100  and  _103
REMARK   45  A    between atoms: _103  and  _104
REMARK   46  A    between atoms: _107  and  _109
REMARK   47  A    between atoms: _109  and  _110
REMARK   48  A    between atoms: _112  and  _114
REMARK   49  A    between atoms: _114  and  _115
REMARK   50  A    between atoms: _114  and  _117
REMARK   51  A    between atoms: _117  and  _118
REMARK   52  A    between atoms: _120  and  _122
REMARK   53  A    between atoms: _122  and  _123
REMARK   54  A    between atoms: _122  and  _125
REMARK   55  A    between atoms: _125  and  _126
REMARK   56  A    between atoms: _128  and  _130
REMARK   57  A    between atoms: _130  and  _131
REMARK   58  A    between atoms: _130  and  _133
REMARK   59  A    between atoms: _133  and  _134
REMARK   60  A    between atoms: _139  and  _141
REMARK   61  A    between atoms: _141  and  _142
REMARK   62  A    between atoms: _141  and  _144
REMARK   63  A    between atoms: _144  and  _145
REMARK   64  A    between atoms: _150  and  _151
REMARK   65  A    between atoms: _153  and  _155
REMARK   66  A    between atoms: _155  and  _156
REMARK   67  A    between atoms: _155  and  _158
REMARK   68  A    between atoms: _162  and  _163
REMARK   69  A    between atoms: _168  and  _170
REMARK   70  A    between atoms: _170  and  _171
REMARK   71  A    between atoms: _170  and  _173
REMARK   72  A    between atoms: _173  and  _174
REMARK   73  A    between atoms: _179  and  _180
REMARK   74  A    between atoms: _182  and  _184
REMARK   75  A    between atoms: _184  and  _185
REMARK   76  A    between atoms: _184  and  _187
REMARK   77  A    between atoms: _187  and  _188
REMARK   78  A    between atoms: _191  and  _193
REMARK   79  A    between atoms: _193  and  _194
REMARK   80  A    between atoms: _193  and  _196
REMARK   81  A    between atoms: _196  and  _197
REMARK   82  A    between atoms: _197  and  _198
REMARK   83  A    between atoms: _203  and  _205
REMARK   84  A    between atoms: _205  and  _206
REMARK   85  A    between atoms: _208  and  _210
REMARK   86  A    between atoms: _210  and  _211
REMARK   87  A    between atoms: _210  and  _213
REMARK   88  A    between atoms: _213  and  _214
REMARK   89  A    between atoms: _214  and  _215
REMARK   90  A    between atoms: _215  and  _216
REMARK   91  A    between atoms: _216  and  _217
REMARK   92  A    between atoms: _221  and  _223
REMARK   93  A    between atoms: _223  and  _224
REMARK   94  A    between atoms: _223  and  _226
REMARK   95  A    between atoms: _226  and  _227
REMARK   96  A    between atoms: _237  and  _239
REMARK   97  A    between atoms: _239  and  _240
REMARK   98  A    between atoms: _239  and  _242
REMARK   99  A    between atoms: _242  and  _243
REMARK  100  A    between atoms: _246  and  _248
REMARK  101  A    between atoms: _248  and  _249
REMARK  102  A    between atoms: _248  and  _251
REMARK  103  A    between atoms: _251  and  _252
REMARK  104  A    between atoms: _252  and  _253
REMARK  105  A    between atoms: _253  and  _254
REMARK  106  A    between atoms: _254  and  _255
REMARK  107  A    between atoms: _259  and  _261
REMARK  108  A    between atoms: _261  and  _262
REMARK  109  A    between atoms: _261  and  _264
REMARK  110  A    between atoms: _264  and  _265
REMARK  111  A    between atoms: _271  and  _273
REMARK  112  A    between atoms: _273  and  _274
REMARK  113  A    between atoms: _273  and  _276
REMARK  114  A    between atoms: _276  and  _277
REMARK  115  A    between atoms: _283  and  _285
REMARK  116  A    between atoms: _285  and  _286
REMARK  117  A    between atoms: _285  and  _288
REMARK  118  A    between atoms: _288  and  _289
REMARK  119  A    between atoms: _292  and  _294
REMARK  120  A    between atoms: _294  and  _295
REMARK  121  A    between atoms: _294  and  _297
REMARK  122  A    between atoms: _297  and  _298
REMARK  123  A    between atoms: _300  and  _302
REMARK  124  A    between atoms: _302  and  _303
REMARK  125  A    between atoms: _302  and  _305
REMARK  126  A    between atoms: _305  and  _306
REMARK  127  A    between atoms: _316  and  _318
REMARK  128  A    between atoms: _318  and  _319
REMARK  129  A    between atoms: _321  and  _323
REMARK  130  A    between atoms: _323  and  _324
REMARK  131  A    between atoms: _323  and  _326
REMARK  132  A    between atoms: _326  and  _327
REMARK  133  A    between atoms: _330  and  _332
REMARK  134  A    between atoms: _332  and  _333
REMARK  135  A    between atoms: _332  and  _335
REMARK  136  A    between atoms: _335  and  _336
REMARK  137  A    between atoms: _339  and  _341
REMARK  138  A    between atoms: _341  and  _342
REMARK  139  A    between atoms: _341  and  _344
REMARK  140  A    between atoms: _344  and  _345
REMARK  141  A    between atoms: _348  and  _350
REMARK  142  A    between atoms: _350  and  _351
REMARK  143  A    between atoms: _354  and  _356
REMARK  144  A    between atoms: _356  and  _357
REMARK  145  A    between atoms: _356  and  _359
REMARK  146  A    between atoms: _359  and  _360
REMARK  147  A    between atoms: _365  and  _366
REMARK  148  A    between atoms: _368  and  _370
REMARK  149  A    between atoms: _370  and  _371
REMARK  150  A    between atoms: _370  and  _373
REMARK  151  A    between atoms: _373  and  _374
REMARK  152  A    between atoms: _374  and  _375
REMARK  153  A    between atoms: _378  and  _380
REMARK  154  A    between atoms: _380  and  _381
REMARK  155  A    between atoms: _380  and  _383
REMARK  156  A    between atoms: _383  and  _384
REMARK  157  A    between atoms: _387  and  _389
REMARK  158  A    between atoms: _389  and  _390
REMARK  159  A    between atoms: _393  and  _395
REMARK  160  A    between atoms: _395  and  _396
REMARK  161  A    between atoms: _395  and  _398
REMARK  162  A    between atoms: _398  and  _399
REMARK  163  A    between atoms: _399  and  _400
REMARK  164  A    between atoms: _400  and  _401
REMARK  165  A    between atoms: _410  and  _412
REMARK  166  A    between atoms: _412  and  _413
REMARK  167  A    between atoms: _412  and  _415
REMARK  168  A    between atoms: _415  and  _416
REMARK  169  A    between atoms: _419  and  _421
REMARK  170  A    between atoms: _421  and  _422
REMARK  171  A    between atoms: _421  and  _424
REMARK  172  A    between atoms: _424  and  _425
REMARK  173  A    between atoms: _435  and  _437
REMARK  174  A    between atoms: _437  and  _438
REMARK  175  A    between atoms: _437  and  _440
REMARK  176  A    between atoms: _440  and  _441
REMARK  177  A    between atoms: _446  and  _447
REMARK  178  A    between atoms: _449  and  _451
REMARK  179  A    between atoms: _451  and  _452
REMARK  180  A    between atoms: _451  and  _454
REMARK  181  A    between atoms: _454  and  _455
REMARK  182  A    between atoms: _455  and  _456
REMARK  183  A    between atoms: _456  and  _457
REMARK  184  A    between atoms: _457  and  _458
REMARK  185  A    between atoms: _462  and  _464
REMARK  186  A    between atoms: _464  and  _465
REMARK  187  A    between atoms: _464  and  _467
REMARK  188  A    between atoms: _467  and  _468
REMARK  189  A    between atoms: _471  and  _473
REMARK  190  A    between atoms: _473  and  _474
REMARK  191  A    between atoms: _473  and  _476
REMARK  192  A    between atoms: _479  and  _481
REMARK  193  A    between atoms: _481  and  _482
REMARK  194  A    between atoms: _481  and  _484
REMARK  195  A    between atoms: _484  and  _485
REMARK  196  A    between atoms: _488  and  _490
REMARK  197  A    between atoms: _490  and  _491
REMARK  198  A    between atoms: _490  and  _493
REMARK  199  A    between atoms: _493  and  _494
REMARK  200  A    between atoms: _496  and  _498
REMARK  201  A    between atoms: _498  and  _499
REMARK  202  A    between atoms: _501  and  _503
REMARK  203  A    between atoms: _503  and  _504
REMARK  204  A    between atoms: _503  and  _506
REMARK  205  A    between atoms: _506  and  _507
REMARK  206  A    between atoms: _510  and  _512
REMARK  207  A    between atoms: _512  and  _513
REMARK  208  A    between atoms: _512  and  _515
REMARK  209  A    between atoms: _515  and  _516
REMARK  210  A    between atoms: _519  and  _521
REMARK  211  A    between atoms: _521  and  _522
REMARK  212  A    between atoms: _521  and  _524
REMARK  213  A    between atoms: _524  and  _525
REMARK  214  A    between atoms: _530  and  _532
REMARK  215  A    between atoms: _532  and  _533
REMARK  216  A    between atoms: _532  and  _535
REMARK  217  A    between atoms: _535  and  _536
REMARK  218  A    between atoms: _539  and  _541
REMARK  219  A    between atoms: _541  and  _542
REMARK  220  A    between atoms: _541  and  _544
REMARK  221  A    between atoms: _544  and  _545
REMARK  222  A    between atoms: _545  and  _546
REMARK  223  A    between atoms: _546  and  _547
REMARK  224  A    between atoms: _556  and  _558
REMARK  225  A    between atoms: _558  and  _559
REMARK  226  A    between atoms: _558  and  _561
REMARK  227  A    between atoms: _561  and  _562
REMARK  228  A    between atoms: _562  and  _563
REMARK  229  A    between atoms: _563  and  _564
REMARK  230  A    between atoms: _573  and  _575
REMARK  231  A    between atoms: _575  and  _576
REMARK  232  A    between atoms: _575  and  _578
REMARK  233  A    between atoms: _578  and  _579
REMARK  234  A    between atoms: _581  and  _583
REMARK  235  A    between atoms: _583  and  _584
REMARK  236  A    between atoms: _583  and  _586
REMARK  237  A    between atoms: _586  and  _587
REMARK  238  A    between atoms: _587  and  _588
REMARK  239  A    between atoms: _593  and  _595
REMARK  240  A    between atoms: _595  and  _596
REMARK  241  A    between atoms: _595  and  _598
REMARK  242  A    between atoms: _598  and  _599
REMARK  243  A    between atoms: _601  and  _603
REMARK  244  A    between atoms: _603  and  _604
REMARK  245  A    between atoms: _603  and  _606
REMARK  246  A    between atoms: _606  and  _607
REMARK  247  A    between atoms: _610  and  _612
REMARK  248  A    between atoms: _612  and  _613
REMARK  249  A    between atoms: _612  and  _615
REMARK  250  A    between atoms: _615  and  _616
REMARK  251  A    between atoms: _619  and  _621
REMARK  252  A    between atoms: _621  and  _622
REMARK  253  A    between atoms: _621  and  _624
REMARK  254  A    between atoms: _627  and  _629
REMARK  255  A    between atoms: _629  and  _630
REMARK  256  A    between atoms: _632  and  _634
REMARK  257  A    between atoms: _634  and  _635
REMARK  258  A    between atoms: _638  and  _640
REMARK  259  A    between atoms: _640  and  _641
REMARK  260  A    between atoms: _640  and  _643
REMARK  261  A    between atoms: _646  and  _648
REMARK  262  A    between atoms: _648  and  _649
REMARK  263  A    between atoms: _648  and  _651
REMARK  264  A    between atoms: _651  and  _652
REMARK  265  A    between atoms: _652  and  _653
REMARK  266  A    between atoms: _655  and  _657
REMARK  267  A    between atoms: _657  and  _658
REMARK  268  A    between atoms: _657  and  _660
REMARK  269  A    between atoms: _660  and  _661
REMARK  270  A    between atoms: _661  and  _662
REMARK                            x       y       z     vdW  Elec       q    Type
REMARK                         _______ _______ _______ _____ _____    ______ ____
ROOT
ATOM      1  O   HOH     1       0.871 -14.624  33.604  0.00  0.00    +0.000 OA
ENDROOT
TORSDOF 0
REMARK  Name = ../refined-set-2016/2g94/2g94_pocket.pdb
REMARK  270 active torsions:
REMARK  status: ('A' for Active; 'I' for Inactive)
REMARK    1  A    between atoms: _1  and  _3
REMARK    2  A    between atoms: _3  and  _4
REMARK    3  A    between atoms: _3  and  _6
REMARK    4  A    between atoms: _6  and  _7
REMARK    5  A    between atoms: _7  and  _8
REMARK    6  A    between atoms: _8  and  _9
REMARK    7  A    between atoms: _9  and  _10
REMARK    8  A    between atoms: _14  and  _16
REMARK    9  A    between atoms: _16  and  _17
REMARK   10  A    between atoms: _16  and  _19
REMARK   11  A    between atoms: _19  and  _20
REMARK   12  A    between atoms: _22  and  _24
REMARK   13  A    between atoms: _24  and  _25
REMARK   14  A    between atoms: _27  and  _29
REMARK   15  A    between atoms: _29  and  _30
REMARK   16  A    between atoms: _29  and  _32
REMARK   17  A    between atoms: _32  and  _33
REMARK   18  A    between atoms: _33  and  _34
REMARK   19  A    between atoms: _39  and  _41
REMARK   20  A    between atoms: _41  and  _42
REMARK   21  A    between atoms: _44  and  _46
REMARK   22  A    between atoms: _46  and  _47
REMARK   23  A    between atoms: _46  and  _49
REMARK   24  A    between atoms: _49  and  _50
REMARK   25  A    between atoms: _55  and  _56
REMARK   26  A    between atoms: _58  and  _60
REMARK   27  A    between atoms: _60  and  _61
REMARK   28  A    between atoms: _60  and  _63
REMARK   29  A    between atoms: _63  and  _64
REMARK   30  A    between atoms: _69  and  _70
REMARK   31  A    between atoms: _72  and  _74
REMARK   32  A    between atoms: _74  and  _75
REMARK   33  A    between atoms: _74  and  _77
REMARK   34  A    between atoms: _77  and  _78
REMARK   35  A    between atoms: _81  and  _83
REMARK   36  A    between atoms: _83  and  _84
REMARK   37  A    between atoms: _83  and  _86
REMARK   38  A    between atoms: _89  and  _91
REMARK   39  A    between atoms: _91  and  _92
REMARK   40  A    between atoms: _91  and  _94
REMARK   41  A    between atoms: _94  and  _95
REMARK   42  A    between atoms: _98  and  _100
REMARK   43  A    between atoms: _100  and  _101
REMARK   44  A    between atoms: _100  and  _103
REMARK   45  A    between atoms: _103  and  _104
REMARK   46  A    between atoms: _107  and  _109
REMARK   47  A    between atoms: _109  and  _110
REMARK   48  A    between atoms: _112  and  _114
REMARK   49  A    between atoms: _114  and  _115
REMARK   50  A    between atoms: _114  and  _117
REMARK   51  A    between atoms: _117  and  _118
REMARK   52  A    between atoms: _120  and  _122
REMARK   53  A    between atoms: _122  and  _123
REMARK   54  A    between atoms: _122  and  _125
REMARK   55  A    between atoms: _125  and  _126
REMARK   56  A    between atoms: _128  and  _130
REMARK   57  A    between atoms: _130  and  _131
REMARK   58  A    between atoms: _130  and  _133
REMARK   59  A    between atoms: _133  and  _134
REMARK   60  A    between atoms: _139  and  _141
REMARK   61  A    between atoms: _141  and  _142
REMARK   62  A    between atoms: _141  and  _144
REMARK   63  A    between atoms: _144  and  _145
REMARK   64  A    between atoms: _150  and  _151
REMARK   65  A    between atoms: _153  and  _155
REMARK   66  A    between atoms: _155  and  _156
REMARK   67  A    between atoms: _155  and  _158
REMARK   68  A    between atoms: _162  and  _163
REMARK   69  A    between atoms: _168  and  _170
REMARK   70  A    between atoms: _170  and  _171
REMARK   71  A    between atoms: _170  and  _173
REMARK   72  A    between atoms: _173  and  _174
REMARK   73  A    between atoms: _179  and  _180
REMARK   74  A    between atoms: _182  and  _184
REMARK   75  A    between atoms: _184  and  _185
REMARK   76  A    between atoms: _184  and  _187
REMARK   77  A    between atoms: _187  and  _188
REMARK   78  A    between atoms: _191  and  _193
REMARK   79  A    between atoms: _193  and  _194
REMARK   80  A    between atoms: _193  and  _196
REMARK   81  A    between atoms: _196  and  _197
REMARK   82  A    between atoms: _197  and  _198
REMARK   83  A    between atoms: _203  and  _205
REMARK   84  A    between atoms: _205  and  _206
REMARK   85  A    between atoms: _208  and  _210
REMARK   86  A    between atoms: _210  and  _211
REMARK   87  A    between atoms: _210  and  _213
REMARK   88  A    between atoms: _213  and  _214
REMARK   89  A    between atoms: _214  and  _215
REMARK   90  A    between atoms: _215  and  _216
REMARK   91  A    between atoms: _216  and  _217
REMARK   92  A    between atoms: _221  and  _223
REMARK   93  A    between atoms: _223  and  _224
REMARK   94  A    between atoms: _223  and  _226
REMARK   95  A    between atoms: _226  and  _227
REMARK   96  A    between atoms: _237  and  _239
REMARK   97  A    between atoms: _239  and  _240
REMARK   98  A    between atoms: _239  and  _242
REMARK   99  A    between atoms: _242  and  _243
REMARK  100  A    between atoms: _246  and  _248
REMARK  101  A    between atoms: _248  and  _249
REMARK  102  A    between atoms: _248  and  _251
REMARK  103  A    between atoms: _251  and  _252
REMARK  104  A    between atoms: _252  and  _253
REMARK  105  A    between atoms: _253  and  _254
REMARK  106  A    between atoms: _254  and  _255
REMARK  107  A    between atoms: _259  and  _261
REMARK  108  A    between atoms: _261  and  _262
REMARK  109  A    between atoms: _261  and  _264
REMARK  110  A    between atoms: _264  and  _265
REMARK  111  A    between atoms: _271  and  _273
REMARK  112  A    between atoms: _273  and  _274
REMARK  113  A    between atoms: _273  and  _276
REMARK  114  A    between atoms: _276  and  _277
REMARK  115  A    between atoms: _283  and  _285
REMARK  116  A    between atoms: _285  and  _286
REMARK  117  A    between atoms: _285  and  _288
REMARK  118  A    between atoms: _288  and  _289
REMARK  119  A    between atoms: _292  and  _294
REMARK  120  A    between atoms: _294  and  _295
REMARK  121  A    between atoms: _294  and  _297
REMARK  122  A    between atoms: _297  and  _298
REMARK  123  A    between atoms: _300  and  _302
REMARK  124  A    between atoms: _302  and  _303
REMARK  125  A    between atoms: _302  and  _305
REMARK  126  A    between atoms: _305  and  _306
REMARK  127  A    between atoms: _316  and  _318
REMARK  128  A    between atoms: _318  and  _319
REMARK  129  A    between atoms: _321  and  _323
REMARK  130  A    between atoms: _323  and  _324
REMARK  131  A    between atoms: _323  and  _326
REMARK  132  A    between atoms: _326  and  _327
REMARK  133  A    between atoms: _330  and  _332
REMARK  134  A    between atoms: _332  and  _333
REMARK  135  A    between atoms: _332  and  _335
REMARK  136  A    between atoms: _335  and  _336
REMARK  137  A    between atoms: _339  and  _341
REMARK  138  A    between atoms: _341  and  _342
REMARK  139  A    between atoms: _341  and  _344
REMARK  140  A    between atoms: _344  and  _345
REMARK  141  A    between atoms: _348  and  _350
REMARK  142  A    between atoms: _350  and  _351
REMARK  143  A    between atoms: _354  and  _356
REMARK  144  A    between atoms: _356  and  _357
REMARK  145  A    between atoms: _356  and  _359
REMARK  146  A    between atoms: _359  and  _360
REMARK  147  A    between atoms: _365  and  _366
REMARK  148  A    between atoms: _368  and  _370
REMARK  149  A    between atoms: _370  and  _371
REMARK  150  A    between atoms: _370  and  _373
REMARK  151  A    between atoms: _373  and  _374
REMARK  152  A    between atoms: _374  and  _375
REMARK  153  A    between atoms: _378  and  _380
REMARK  154  A    between atoms: _380  and  _381
REMARK  155  A    between atoms: _380  and  _383
REMARK  156  A    between atoms: _383  and  _384
REMARK  157  A    between atoms: _387  and  _389
REMARK  158  A    between atoms: _389  and  _390
REMARK  159  A    between atoms: _393  and  _395
REMARK  160  A    between atoms: _395  and  _396
REMARK  161  A    between atoms: _395  and  _398
REMARK  162  A    between atoms: _398  and  _399
REMARK  163  A    between atoms: _399  and  _400
REMARK  164  A    between atoms: _400  and  _401
REMARK  165  A    between atoms: _410  and  _412
REMARK  166  A    between atoms: _412  and  _413
REMARK  167  A    between atoms: _412  and  _415
REMARK  168  A    between atoms: _415  and  _416
REMARK  169  A    between atoms: _419  and  _421
REMARK  170  A    between atoms: _421  and  _422
REMARK  171  A    between atoms: _421  and  _424
REMARK  172  A    between atoms: _424  and  _425
REMARK  173  A    between atoms: _435  and  _437
REMARK  174  A    between atoms: _437  and  _438
REMARK  175  A    between atoms: _437  and  _440
REMARK  176  A    between atoms: _440  and  _441
REMARK  177  A    between atoms: _446  and  _447
REMARK  178  A    between atoms: _449  and  _451
REMARK  179  A    between atoms: _451  and  _452
REMARK  180  A    between atoms: _451  and  _454
REMARK  181  A    between atoms: _454  and  _455
REMARK  182  A    between atoms: _455  and  _456
REMARK  183  A    between atoms: _456  and  _457
REMARK  184  A    between atoms: _457  and  _458
REMARK  185  A    between atoms: _462  and  _464
REMARK  186  A    between atoms: _464  and  _465
REMARK  187  A    between atoms: _464  and  _467
REMARK  188  A    between atoms: _467  and  _468
REMARK  189  A    between atoms: _471  and  _473
REMARK  190  A    between atoms: _473  and  _474
REMARK  191  A    between atoms: _473  and  _476
REMARK  192  A    between atoms: _479  and  _481
REMARK  193  A    between atoms: _481  and  _482
REMARK  194  A    between atoms: _481  and  _484
REMARK  195  A    between atoms: _484  and  _485
REMARK  196  A    between atoms: _488  and  _490
REMARK  197  A    between atoms: _490  and  _491
REMARK  198  A    between atoms: _490  and  _493
REMARK  199  A    between atoms: _493  and  _494
REMARK  200  A    between atoms: _496  and  _498
REMARK  201  A    between atoms: _498  and  _499
REMARK  202  A    between atoms: _501  and  _503
REMARK  203  A    between atoms: _503  and  _504
REMARK  204  A    between atoms: _503  and  _506
REMARK  205  A    between atoms: _506  and  _507
REMARK  206  A    between atoms: _510  and  _512
REMARK  207  A    between atoms: _512  and  _513
REMARK  208  A    between atoms: _512  and  _515
REMARK  209  A    between atoms: _515  and  _516
REMARK  210  A    between atoms: _519  and  _521
REMARK  211  A    between atoms: _521  and  _522
REMARK  212  A    between atoms: _521  and  _524
REMARK  213  A    between atoms: _524  and  _525
REMARK  214  A    between atoms: _530  and  _532
REMARK  215  A    between atoms: _532  and  _533
REMARK  216  A    between atoms: _532  and  _535
REMARK  217  A    between atoms: _535  and  _536
REMARK  218  A    between atoms: _539  and  _541
REMARK  219  A    between atoms: _541  and  _542
REMARK  220  A    between atoms: _541  and  _544
REMARK  221  A    between atoms: _544  and  _545
REMARK  222  A    between atoms: _545  and  _546
REMARK  223  A    between atoms: _546  and  _547
REMARK  224  A    between atoms: _556  and  _558
REMARK  225  A    between atoms: _558  and  _559
REMARK  226  A    between atoms: _558  and  _561
REMARK  227  A    between atoms: _561  and  _562
REMARK  228  A    between atoms: _562  and  _563
REMARK  229  A    between atoms: _563  and  _564
REMARK  230  A    between atoms: _573  and  _575
REMARK  231  A    between atoms: _575  and  _576
REMARK  232  A    between atoms: _575  and  _578
REMARK  233  A    between atoms: _578  and  _579
REMARK  234  A    between atoms: _581  and  _583
REMARK  235  A    between atoms: _583  and  _584
REMARK  236  A    between atoms: _583  and  _586
REMARK  237  A    between atoms: _586  and  _587
REMARK  238  A    between atoms: _587  and  _588
REMARK  239  A    between atoms: _593  and  _595
REMARK  240  A    between atoms: _595  and  _596
REMARK  241  A    between atoms: _595  and  _598
REMARK  242  A    between atoms: _598  and  _599
REMARK  243  A    between atoms: _601  and  _603
REMARK  244  A    between atoms: _603  and  _604
REMARK  245  A    between atoms: _603  and  _606
REMARK  246  A    between atoms: _606  and  _607
REMARK  247  A    between atoms: _610  and  _612
REMARK  248  A    between atoms: _612  and  _613
REMARK  249  A    between atoms: _612  and  _615
REMARK  250  A    between atoms: _615  and  _616
REMARK  251  A    between atoms: _619  and  _621
REMARK  252  A    between atoms: _621  and  _622
REMARK  253  A    between atoms: _621  and  _624
REMARK  254  A    between atoms: _627  and  _629
REMARK  255  A    between atoms: _629  and  _630
REMARK  256  A    between atoms: _632  and  _634
REMARK  257  A    between atoms: _634  and  _635
REMARK  258  A    between atoms: _638  and  _640
REMARK  259  A    between atoms: _640  and  _641
REMARK  260  A    between atoms: _640  and  _643
REMARK  261  A    between atoms: _646  and  _648
REMARK  262  A    between atoms: _648  and  _649
REMARK  263  A    between atoms: _648  and  _651
REMARK  264  A    between atoms: _651  and  _652
REMARK  265  A    between atoms: _652  and  _653
REMARK  266  A    between atoms: _655  and  _657
REMARK  267  A    between atoms: _657  and  _658
REMARK  268  A    between atoms: _657  and  _660
REMARK  269  A    between atoms: _660  and  _661
REMARK  270  A    between atoms: _661  and  _662
REMARK                            x       y       z     vdW  Elec       q    Type
REMARK                         _______ _______ _______ _____ _____    ______ ____
ROOT
ATOM      1  O   HOH     1     -14.595   0.031  33.207  0.00  0.00    +0.000 OA
ENDROOT
TORSDOF 0
REMARK  Name = ../refined-set-2016/2g94/2g94_pocket.pdb
REMARK  270 active torsions:
REMARK  status: ('A' for Active; 'I' for Inactive)
REMARK    1  A    between atoms: _1  and  _3
REMARK    2  A    between atoms: _3  and  _4
REMARK    3  A    between atoms: _3  and  _6
REMARK    4  A    between atoms: _6  and  _7
REMARK    5  A    between atoms: _7  and  _8
REMARK    6  A    between atoms: _8  and  _9
REMARK    7  A    between atoms: _9  and  _10
REMARK    8  A    between atoms: _14  and  _16
REMARK    9  A    between atoms: _16  and  _17
REMARK   10  A    between atoms: _16  and  _19
REMARK   11  A    between atoms: _19  and  _20
REMARK   12  A    between atoms: _22  and  _24
REMARK   13  A    between atoms: _24  and  _25
REMARK   14  A    between atoms: _27  and  _29
REMARK   15  A    between atoms: _29  and  _30
REMARK   16  A    between atoms: _29  and  _32
REMARK   17  A    between atoms: _32  and  _33
REMARK   18  A    between atoms: _33  and  _34
REMARK   19  A    between atoms: _39  and  _41
REMARK   20  A    between atoms: _41  and  _42
REMARK   21  A    between atoms: _44  and  _46
REMARK   22  A    between atoms: _46  and  _47
REMARK   23  A    between atoms: _46  and  _49
REMARK   24  A    between atoms: _49  and  _50
REMARK   25  A    between atoms: _55  and  _56
REMARK   26  A    between atoms: _58  and  _60
REMARK   27  A    between atoms: _60  and  _61
REMARK   28  A    between atoms: _60  and  _63
REMARK   29  A    between atoms: _63  and  _64
REMARK   30  A    between atoms: _69  and  _70
REMARK   31  A    between atoms: _72  and  _74
REMARK   32  A    between atoms: _74  and  _75
REMARK   33  A    between atoms: _74  and  _77
REMARK   34  A    between atoms: _77  and  _78
REMARK   35  A    between atoms: _81  and  _83
REMARK   36  A    between atoms: _83  and  _84
REMARK   37  A    between atoms: _83  and  _86
REMARK   38  A    between atoms: _89  and  _91
REMARK   39  A    between atoms: _91  and  _92
REMARK   40  A    between atoms: _91  and  _94
REMARK   41  A    between atoms: _94  and  _95
REMARK   42  A    between atoms: _98  and  _100
REMARK   43  A    between atoms: _100  and  _101
REMARK   44  A    between atoms: _100  and  _103
REMARK   45  A    between atoms: _103  and  _104
REMARK   46  A    between atoms: _107  and  _109
REMARK   47  A    between atoms: _109  and  _110
REMARK   48  A    between atoms: _112  and  _114
REMARK   49  A    between atoms: _114  and  _115
REMARK   50  A    between atoms: _114  and  _117
REMARK   51  A    between atoms: _117  and  _118
REMARK   52  A    between atoms: _120  and  _122
REMARK   53  A    between atoms: _122  and  _123
REMARK   54  A    between atoms: _122  and  _125
REMARK   55  A    between atoms: _125  and  _126
REMARK   56  A    between atoms: _128  and  _130
REMARK   57  A    between atoms: _130  and  _131
REMARK   58  A    between atoms: _130  and  _133
REMARK   59  A    between atoms: _133  and  _134
REMARK   60  A    between atoms: _139  and  _141
REMARK   61  A    between atoms: _141  and  _142
REMARK   62  A    between atoms: _141  and  _144
REMARK   63  A    between atoms: _144  and  _145
REMARK   64  A    between atoms: _150  and  _151
REMARK   65  A    between atoms: _153  and  _155
REMARK   66  A    between atoms: _155  and  _156
REMARK   67  A    between atoms: _155  and  _158
REMARK   68  A    between atoms: _162  and  _163
REMARK   69  A    between atoms: _168  and  _170
REMARK   70  A    between atoms: _170  and  _171
REMARK   71  A    between atoms: _170  and  _173
REMARK   72  A    between atoms: _173  and  _174
REMARK   73  A    between atoms: _179  and  _180
REMARK   74  A    between atoms: _182  and  _184
REMARK   75  A    between atoms: _184  and  _185
REMARK   76  A    between atoms: _184  and  _187
REMARK   77  A    between atoms: _187  and  _188
REMARK   78  A    between atoms: _191  and  _193
REMARK   79  A    between atoms: _193  and  _194
REMARK   80  A    between atoms: _193  and  _196
REMARK   81  A    between atoms: _196  and  _197
REMARK   82  A    between atoms: _197  and  _198
REMARK   83  A    between atoms: _203  and  _205
REMARK   84  A    between atoms: _205  and  _206
REMARK   85  A    between atoms: _208  and  _210
REMARK   86  A    between atoms: _210  and  _211
REMARK   87  A    between atoms: _210  and  _213
REMARK   88  A    between atoms: _213  and  _214
REMARK   89  A    between atoms: _214  and  _215
REMARK   90  A    between atoms: _215  and  _216
REMARK   91  A    between atoms: _216  and  _217
REMARK   92  A    between atoms: _221  and  _223
REMARK   93  A    between atoms: _223  and  _224
REMARK   94  A    between atoms: _223  and  _226
REMARK   95  A    between atoms: _226  and  _227
REMARK   96  A    between atoms: _237  and  _239
REMARK   97  A    between atoms: _239  and  _240
REMARK   98  A    between atoms: _239  and  _242
REMARK   99  A    between atoms: _242  and  _243
REMARK  100  A    between atoms: _246  and  _248
REMARK  101  A    between atoms: _248  and  _249
REMARK  102  A    between atoms: _248  and  _251
REMARK  103  A    between atoms: _251  and  _252
REMARK  104  A    between atoms: _252  and  _253
REMARK  105  A    between atoms: _253  and  _254
REMARK  106  A    between atoms: _254  and  _255
REMARK  107  A    between atoms: _259  and  _261
REMARK  108  A    between atoms: _261  and  _262
REMARK  109  A    between atoms: _261  and  _264
REMARK  110  A    between atoms: _264  and  _265
REMARK  111  A    between atoms: _271  and  _273
REMARK  112  A    between atoms: _273  and  _274
REMARK  113  A    between atoms: _273  and  _276
REMARK  114  A    between atoms: _276  and  _277
REMARK  115  A    between atoms: _283  and  _285
REMARK  116  A    between atoms: _285  and  _286
REMARK  117  A    between atoms: _285  and  _288
REMARK  118  A    between atoms: _288  and  _289
REMARK  119  A    between atoms: _292  and  _294
REMARK  120  A    between atoms: _294  and  _295
REMARK  121  A    between atoms: _294  and  _297
REMARK  122  A    between atoms: _297  and  _298
REMARK  123  A    between atoms: _300  and  _302
REMARK  124  A    between atoms: _302  and  _303
REMARK  125  A    between atoms: _302  and  _305
REMARK  126  A    between atoms: _305  and  _306
REMARK  127  A    between atoms: _316  and  _318
REMARK  128  A    between atoms: _318  and  _319
REMARK  129  A    between atoms: _321  and  _323
REMARK  130  A    between atoms: _323  and  _324
REMARK  131  A    between atoms: _323  and  _326
REMARK  132  A    between atoms: _326  and  _327
REMARK  133  A    between atoms: _330  and  _332
REMARK  134  A    between atoms: _332  and  _333
REMARK  135  A    between atoms: _332  and  _335
REMARK  136  A    between atoms: _335  and  _336
REMARK  137  A    between atoms: _339  and  _341
REMARK  138  A    between atoms: _341  and  _342
REMARK  139  A    between atoms: _341  and  _344
REMARK  140  A    between atoms: _344  and  _345
REMARK  141  A    between atoms: _348  and  _350
REMARK  142  A    between atoms: _350  and  _351
REMARK  143  A    between atoms: _354  and  _356
REMARK  144  A    between atoms: _356  and  _357
REMARK  145  A    between atoms: _356  and  _359
REMARK  146  A    between atoms: _359  and  _360
REMARK  147  A    between atoms: _365  and  _366
REMARK  148  A    between atoms: _368  and  _370
REMARK  149  A    between atoms: _370  and  _371
REMARK  150  A    between atoms: _370  and  _373
REMARK  151  A    between atoms: _373  and  _374
REMARK  152  A    between atoms: _374  and  _375
REMARK  153  A    between atoms: _378  and  _380
REMARK  154  A    between atoms: _380  and  _381
REMARK  155  A    between atoms: _380  and  _383
REMARK  156  A    between atoms: _383  and  _384
REMARK  157  A    between atoms: _387  and  _389
REMARK  158  A    between atoms: _389  and  _390
REMARK  159  A    between atoms: _393  and  _395
REMARK  160  A    between atoms: _395  and  _396
REMARK  161  A    between atoms: _395  and  _398
REMARK  162  A    between atoms: _398  and  _399
REMARK  163  A    between atoms: _399  and  _400
REMARK  164  A    between atoms: _400  and  _401
REMARK  165  A    between atoms: _410  and  _412
REMARK  166  A    between atoms: _412  and  _413
REMARK  167  A    between atoms: _412  and  _415
REMARK  168  A    between atoms: _415  and  _416
REMARK  169  A    between atoms: _419  and  _421
REMARK  170  A    between atoms: _421  and  _422
REMARK  171  A    between atoms: _421  and  _424
REMARK  172  A    between atoms: _424  and  _425
REMARK  173  A    between atoms: _435  and  _437
REMARK  174  A    between atoms: _437  and  _438
REMARK  175  A    between atoms: _437  and  _440
REMARK  176  A    between atoms: _440  and  _441
REMARK  177  A    between atoms: _446  and  _447
REMARK  178  A    between atoms: _449  and  _451
REMARK  179  A    between atoms: _451  and  _452
REMARK  180  A    between atoms: _451  and  _454
REMARK  181  A    between atoms: _454  and  _455
REMARK  182  A    between atoms: _455  and  _456
REMARK  183  A    between atoms: _456  and  _457
REMARK  184  A    between atoms: _457  and  _458
REMARK  185  A    between atoms: _462  and  _464
REMARK  186  A    between atoms: _464  and  _465
REMARK  187  A    between atoms: _464  and  _467
REMARK  188  A    between atoms: _467  and  _468
REMARK  189  A    between atoms: _471  and  _473
REMARK  190  A    between atoms: _473  and  _474
REMARK  191  A    between atoms: _473  and  _476
REMARK  192  A    between atoms: _479  and  _481
REMARK  193  A    between atoms: _481  and  _482
REMARK  194  A    between atoms: _481  and  _484
REMARK  195  A    between atoms: _484  and  _485
REMARK  196  A    between atoms: _488  and  _490
REMARK  197  A    between atoms: _490  and  _491
REMARK  198  A    between atoms: _490  and  _493
REMARK  199  A    between atoms: _493  and  _494
REMARK  200  A    between atoms: _496  and  _498
REMARK  201  A    between atoms: _498  and  _499
REMARK  202  A    between atoms: _501  and  _503
REMARK  203  A    between atoms: _503  and  _504
REMARK  204  A    between atoms: _503  and  _506
REMARK  205  A    between atoms: _506  and  _507
REMARK  206  A    between atoms: _510  and  _512
REMARK  207  A    between atoms: _512  and  _513
REMARK  208  A    between atoms: _512  and  _515
REMARK  209  A    between atoms: _515  and  _516
REMARK  210  A    between atoms: _519  and  _521
REMARK  211  A    between atoms: _521  and  _522
REMARK  212  A    between atoms: _521  and  _524
REMARK  213  A    between atoms: _524  and  _525
REMARK  214  A    between atoms: _530  and  _532
REMARK  215  A    between atoms: _532  and  _533
REMARK  216  A    between atoms: _532  and  _535
REMARK  217  A    between atoms: _535  and  _536
REMARK  218  A    between atoms: _539  and  _541
REMARK  219  A    between atoms: _541  and  _542
REMARK  220  A    between atoms: _541  and  _544
REMARK  221  A    between atoms: _544  and  _545
REMARK  222  A    between atoms: _545  and  _546
REMARK  223  A    between atoms: _546  and  _547
REMARK  224  A    between atoms: _556  and  _558
REMARK  225  A    between atoms: _558  and  _559
REMARK  226  A    between atoms: _558  and  _561
REMARK  227  A    between atoms: _561  and  _562
REMARK  228  A    between atoms: _562  and  _563
REMARK  229  A    between atoms: _563  and  _564
REMARK  230  A    between atoms: _573  and  _575
REMARK  231  A    between atoms: _575  and  _576
REMARK  232  A    between atoms: _575  and  _578
REMARK  233  A    between atoms: _578  and  _579
REMARK  234  A    between atoms: _581  and  _583
REMARK  235  A    between atoms: _583  and  _584
REMARK  236  A    between atoms: _583  and  _586
REMARK  237  A    between atoms: _586  and  _587
REMARK  238  A    between atoms: _587  and  _588
REMARK  239  A    between atoms: _593  and  _595
REMARK  240  A    between atoms: _595  and  _596
REMARK  241  A    between atoms: _595  and  _598
REMARK  242  A    between atoms: _598  and  _599
REMARK  243  A    between atoms: _601  and  _603
REMARK  244  A    between atoms: _603  and  _604
REMARK  245  A    between atoms: _603  and  _606
REMARK  246  A    between atoms: _606  and  _607
REMARK  247  A    between atoms: _610  and  _612
REMARK  248  A    between atoms: _612  and  _613
REMARK  249  A    between atoms: _612  and  _615
REMARK  250  A    between atoms: _615  and  _616
REMARK  251  A    between atoms: _619  and  _621
REMARK  252  A    between atoms: _621  and  _622
REMARK  253  A    between atoms: _621  and  _624
REMARK  254  A    between atoms: _627  and  _629
REMARK  255  A    between atoms: _629  and  _630
REMARK  256  A    between atoms: _632  and  _634
REMARK  257  A    between atoms: _634  and  _635
REMARK  258  A    between atoms: _638  and  _640
REMARK  259  A    between atoms: _640  and  _641
REMARK  260  A    between atoms: _640  and  _643
REMARK  261  A    between atoms: _646  and  _648
REMARK  262  A    between atoms: _648  and  _649
REMARK  263  A    between atoms: _648  and  _651
REMARK  264  A    between atoms: _651  and  _652
REMARK  265  A    between atoms: _652  and  _653
REMARK  266  A    between atoms: _655  and  _657
REMARK  267  A    between atoms: _657  and  _658
REMARK  268  A    between atoms: _657  and  _660
REMARK  269  A    between atoms: _660  and  _661
REMARK  270  A    between atoms: _661  and  _662
REMARK                            x       y       z     vdW  Elec       q    Type
REMARK                         _______ _______ _______ _____ _____    ______ ____
ROOT
ATOM      1  O   HOH     1      -8.284   0.869  27.504  0.00  0.00    +0.000 OA
ENDROOT
TORSDOF 0
REMARK  Name = ../refined-set-2016/2g94/2g94_pocket.pdb
REMARK  270 active torsions:
REMARK  status: ('A' for Active; 'I' for Inactive)
REMARK    1  A    between atoms: _1  and  _3
REMARK    2  A    between atoms: _3  and  _4
REMARK    3  A    between atoms: _3  and  _6
REMARK    4  A    between atoms: _6  and  _7
REMARK    5  A    between atoms: _7  and  _8
REMARK    6  A    between atoms: _8  and  _9
REMARK    7  A    between atoms: _9  and  _10
REMARK    8  A    between atoms: _14  and  _16
REMARK    9  A    between atoms: _16  and  _17
REMARK   10  A    between atoms: _16  and  _19
REMARK   11  A    between atoms: _19  and  _20
REMARK   12  A    between atoms: _22  and  _24
REMARK   13  A    between atoms: _24  and  _25
REMARK   14  A    between atoms: _27  and  _29
REMARK   15  A    between atoms: _29  and  _30
REMARK   16  A    between atoms: _29  and  _32
REMARK   17  A    between atoms: _32  and  _33
REMARK   18  A    between atoms: _33  and  _34
REMARK   19  A    between atoms: _39  and  _41
REMARK   20  A    between atoms: _41  and  _42
REMARK   21  A    between atoms: _44  and  _46
REMARK   22  A    between atoms: _46  and  _47
REMARK   23  A    between atoms: _46  and  _49
REMARK   24  A    between atoms: _49  and  _50
REMARK   25  A    between atoms: _55  and  _56
REMARK   26  A    between atoms: _58  and  _60
REMARK   27  A    between atoms: _60  and  _61
REMARK   28  A    between atoms: _60  and  _63
REMARK   29  A    between atoms: _63  and  _64
REMARK   30  A    between atoms: _69  and  _70
REMARK   31  A    between atoms: _72  and  _74
REMARK   32  A    between atoms: _74  and  _75
REMARK   33  A    between atoms: _74  and  _77
REMARK   34  A    between atoms: _77  and  _78
REMARK   35  A    between atoms: _81  and  _83
REMARK   36  A    between atoms: _83  and  _84
REMARK   37  A    between atoms: _83  and  _86
REMARK   38  A    between atoms: _89  and  _91
REMARK   39  A    between atoms: _91  and  _92
REMARK   40  A    between atoms: _91  and  _94
REMARK   41  A    between atoms: _94  and  _95
REMARK   42  A    between atoms: _98  and  _100
REMARK   43  A    between atoms: _100  and  _101
REMARK   44  A    between atoms: _100  and  _103
REMARK   45  A    between atoms: _103  and  _104
REMARK   46  A    between atoms: _107  and  _109
REMARK   47  A    between atoms: _109  and  _110
REMARK   48  A    between atoms: _112  and  _114
REMARK   49  A    between atoms: _114  and  _115
REMARK   50  A    between atoms: _114  and  _117
REMARK   51  A    between atoms: _117  and  _118
REMARK   52  A    between atoms: _120  and  _122
REMARK   53  A    between atoms: _122  and  _123
REMARK   54  A    between atoms: _122  and  _125
REMARK   55  A    between atoms: _125  and  _126
REMARK   56  A    between atoms: _128  and  _130
REMARK   57  A    between atoms: _130  and  _131
REMARK   58  A    between atoms: _130  and  _133
REMARK   59  A    between atoms: _133  and  _134
REMARK   60  A    between atoms: _139  and  _141
REMARK   61  A    between atoms: _141  and  _142
REMARK   62  A    between atoms: _141  and  _144
REMARK   63  A    between atoms: _144  and  _145
REMARK   64  A    between atoms: _150  and  _151
REMARK   65  A    between atoms: _153  and  _155
REMARK   66  A    between atoms: _155  and  _156
REMARK   67  A    between atoms: _155  and  _158
REMARK   68  A    between atoms: _162  and  _163
REMARK   69  A    between atoms: _168  and  _170
REMARK   70  A    between atoms: _170  and  _171
REMARK   71  A    between atoms: _170  and  _173
REMARK   72  A    between atoms: _173  and  _174
REMARK   73  A    between atoms: _179  and  _180
REMARK   74  A    between atoms: _182  and  _184
REMARK   75  A    between atoms: _184  and  _185
REMARK   76  A    between atoms: _184  and  _187
REMARK   77  A    between atoms: _187  and  _188
REMARK   78  A    between atoms: _191  and  _193
REMARK   79  A    between atoms: _193  and  _194
REMARK   80  A    between atoms: _193  and  _196
REMARK   81  A    between atoms: _196  and  _197
REMARK   82  A    between atoms: _197  and  _198
REMARK   83  A    between atoms: _203  and  _205
REMARK   84  A    between atoms: _205  and  _206
REMARK   85  A    between atoms: _208  and  _210
REMARK   86  A    between atoms: _210  and  _211
REMARK   87  A    between atoms: _210  and  _213
REMARK   88  A    between atoms: _213  and  _214
REMARK   89  A    between atoms: _214  and  _215
REMARK   90  A    between atoms: _215  and  _216
REMARK   91  A    between atoms: _216  and  _217
REMARK   92  A    between atoms: _221  and  _223
REMARK   93  A    between atoms: _223  and  _224
REMARK   94  A    between atoms: _223  and  _226
REMARK   95  A    between atoms: _226  and  _227
REMARK   96  A    between atoms: _237  and  _239
REMARK   97  A    between atoms: _239  and  _240
REMARK   98  A    between atoms: _239  and  _242
REMARK   99  A    between atoms: _242  and  _243
REMARK  100  A    between atoms: _246  and  _248
REMARK  101  A    between atoms: _248  and  _249
REMARK  102  A    between atoms: _248  and  _251
REMARK  103  A    between atoms: _251  and  _252
REMARK  104  A    between atoms: _252  and  _253
REMARK  105  A    between atoms: _253  and  _254
REMARK  106  A    between atoms: _254  and  _255
REMARK  107  A    between atoms: _259  and  _261
REMARK  108  A    between atoms: _261  and  _262
REMARK  109  A    between atoms: _261  and  _264
REMARK  110  A    between atoms: _264  and  _265
REMARK  111  A    between atoms: _271  and  _273
REMARK  112  A    between atoms: _273  and  _274
REMARK  113  A    between atoms: _273  and  _276
REMARK  114  A    between atoms: _276  and  _277
REMARK  115  A    between atoms: _283  and  _285
REMARK  116  A    between atoms: _285  and  _286
REMARK  117  A    between atoms: _285  and  _288
REMARK  118  A    between atoms: _288  and  _289
REMARK  119  A    between atoms: _292  and  _294
REMARK  120  A    between atoms: _294  and  _295
REMARK  121  A    between atoms: _294  and  _297
REMARK  122  A    between atoms: _297  and  _298
REMARK  123  A    between atoms: _300  and  _302
REMARK  124  A    between atoms: _302  and  _303
REMARK  125  A    between atoms: _302  and  _305
REMARK  126  A    between atoms: _305  and  _306
REMARK  127  A    between atoms: _316  and  _318
REMARK  128  A    between atoms: _318  and  _319
REMARK  129  A    between atoms: _321  and  _323
REMARK  130  A    between atoms: _323  and  _324
REMARK  131  A    between atoms: _323  and  _326
REMARK  132  A    between atoms: _326  and  _327
REMARK  133  A    between atoms: _330  and  _332
REMARK  134  A    between atoms: _332  and  _333
REMARK  135  A    between atoms: _332  and  _335
REMARK  136  A    between atoms: _335  and  _336
REMARK  137  A    between atoms: _339  and  _341
REMARK  138  A    between atoms: _341  and  _342
REMARK  139  A    between atoms: _341  and  _344
REMARK  140  A    between atoms: _344  and  _345
REMARK  141  A    between atoms: _348  and  _350
REMARK  142  A    between atoms: _350  and  _351
REMARK  143  A    between atoms: _354  and  _356
REMARK  144  A    between atoms: _356  and  _357
REMARK  145  A    between atoms: _356  and  _359
REMARK  146  A    between atoms: _359  and  _360
REMARK  147  A    between atoms: _365  and  _366
REMARK  148  A    between atoms: _368  and  _370
REMARK  149  A    between atoms: _370  and  _371
REMARK  150  A    between atoms: _370  and  _373
REMARK  151  A    between atoms: _373  and  _374
REMARK  152  A    between atoms: _374  and  _375
REMARK  153  A    between atoms: _378  and  _380
REMARK  154  A    between atoms: _380  and  _381
REMARK  155  A    between atoms: _380  and  _383
REMARK  156  A    between atoms: _383  and  _384
REMARK  157  A    between atoms: _387  and  _389
REMARK  158  A    between atoms: _389  and  _390
REMARK  159  A    between atoms: _393  and  _395
REMARK  160  A    between atoms: _395  and  _396
REMARK  161  A    between atoms: _395  and  _398
REMARK  162  A    between atoms: _398  and  _399
REMARK  163  A    between atoms: _399  and  _400
REMARK  164  A    between atoms: _400  and  _401
REMARK  165  A    between atoms: _410  and  _412
REMARK  166  A    between atoms: _412  and  _413
REMARK  167  A    between atoms: _412  and  _415
REMARK  168  A    between atoms: _415  and  _416
REMARK  169  A    between atoms: _419  and  _421
REMARK  170  A    between atoms: _421  and  _422
REMARK  171  A    between atoms: _421  and  _424
REMARK  172  A    between atoms: _424  and  _425
REMARK  173  A    between atoms: _435  and  _437
REMARK  174  A    between atoms: _437  and  _438
REMARK  175  A    between atoms: _437  and  _440
REMARK  176  A    between atoms: _440  and  _441
REMARK  177  A    between atoms: _446  and  _447
REMARK  178  A    between atoms: _449  and  _451
REMARK  179  A    between atoms: _451  and  _452
REMARK  180  A    between atoms: _451  and  _454
REMARK  181  A    between atoms: _454  and  _455
REMARK  182  A    between atoms: _455  and  _456
REMARK  183  A    between atoms: _456  and  _457
REMARK  184  A    between atoms: _457  and  _458
REMARK  185  A    between atoms: _462  and  _464
REMARK  186  A    between atoms: _464  and  _465
REMARK  187  A    between atoms: _464  and  _467
REMARK  188  A    between atoms: _467  and  _468
REMARK  189  A    between atoms: _471  and  _473
REMARK  190  A    between atoms: _473  and  _474
REMARK  191  A    between atoms: _473  and  _476
REMARK  192  A    between atoms: _479  and  _481
REMARK  193  A    between atoms: _481  and  _482
REMARK  194  A    between atoms: _481  and  _484
REMARK  195  A    between atoms: _484  and  _485
REMARK  196  A    between atoms: _488  and  _490
REMARK  197  A    between atoms: _490  and  _491
REMARK  198  A    between atoms: _490  and  _493
REMARK  199  A    between atoms: _493  and  _494
REMARK  200  A    between atoms: _496  and  _498
REMARK  201  A    between atoms: _498  and  _499
REMARK  202  A    between atoms: _501  and  _503
REMARK  203  A    between atoms: _503  and  _504
REMARK  204  A    between atoms: _503  and  _506
REMARK  205  A    between atoms: _506  and  _507
REMARK  206  A    between atoms: _510  and  _512
REMARK  207  A    between atoms: _512  and  _513
REMARK  208  A    between atoms: _512  and  _515
REMARK  209  A    between atoms: _515  and  _516
REMARK  210  A    between atoms: _519  and  _521
REMARK  211  A    between atoms: _521  and  _522
REMARK  212  A    between atoms: _521  and  _524
REMARK  213  A    between atoms: _524  and  _525
REMARK  214  A    between atoms: _530  and  _532
REMARK  215  A    between atoms: _532  and  _533
REMARK  216  A    between atoms: _532  and  _535
REMARK  217  A    between atoms: _535  and  _536
REMARK  218  A    between atoms: _539  and  _541
REMARK  219  A    between atoms: _541  and  _542
REMARK  220  A    between atoms: _541  and  _544
REMARK  221  A    between atoms: _544  and  _545
REMARK  222  A    between atoms: _545  and  _546
REMARK  223  A    between atoms: _546  and  _547
REMARK  224  A    between atoms: _556  and  _558
REMARK  225  A    between atoms: _558  and  _559
REMARK  226  A    between atoms: _558  and  _561
REMARK  227  A    between atoms: _561  and  _562
REMARK  228  A    between atoms: _562  and  _563
REMARK  229  A    between atoms: _563  and  _564
REMARK  230  A    between atoms: _573  and  _575
REMARK  231  A    between atoms: _575  and  _576
REMARK  232  A    between atoms: _575  and  _578
REMARK  233  A    between atoms: _578  and  _579
REMARK  234  A    between atoms: _581  and  _583
REMARK  235  A    between atoms: _583  and  _584
REMARK  236  A    between atoms: _583  and  _586
REMARK  237  A    between atoms: _586  and  _587
REMARK  238  A    between atoms: _587  and  _588
REMARK  239  A    between atoms: _593  and  _595
REMARK  240  A    between atoms: _595  and  _596
REMARK  241  A    between atoms: _595  and  _598
REMARK  242  A    between atoms: _598  and  _599
REMARK  243  A    between atoms: _601  and  _603
REMARK  244  A    between atoms: _603  and  _604
REMARK  245  A    between atoms: _603  and  _606
REMARK  246  A    between atoms: _606  and  _607
REMARK  247  A    between atoms: _610  and  _612
REMARK  248  A    between atoms: _612  and  _613
REMARK  249  A    between atoms: _612  and  _615
REMARK  250  A    between atoms: _615  and  _616
REMARK  251  A    between atoms: _619  and  _621
REMARK  252  A    between atoms: _621  and  _622
REMARK  253  A    between atoms: _621  and  _624
REMARK  254  A    between atoms: _627  and  _629
REMARK  255  A    between atoms: _629  and  _630
REMARK  256  A    between atoms: _632  and  _634
REMARK  257  A    between atoms: _634  and  _635
REMARK  258  A    between atoms: _638  and  _640
REMARK  259  A    between atoms: _640  and  _641
REMARK  260  A    between atoms: _640  and  _643
REMARK  261  A    between atoms: _646  and  _648
REMARK  262  A    between atoms: _648  and  _649
REMARK  263  A    between atoms: _648  and  _651
REMARK  264  A    between atoms: _651  and  _652
REMARK  265  A    between atoms: _652  and  _653
REMARK  266  A    between atoms: _655  and  _657
REMARK  267  A    between atoms: _657  and  _658
REMARK  268  A    between atoms: _657  and  _660
REMARK  269  A    between atoms: _660  and  _661
REMARK  270  A    between atoms: _661  and  _662
REMARK                            x       y       z     vdW  Elec       q    Type
REMARK                         _______ _______ _______ _____ _____    ______ ____
ROOT
ATOM      1  O   HOH     1       6.484 -11.052  36.236  0.00  0.00    +0.000 OA
ENDROOT
TORSDOF 0
REMARK  Name = ../refined-set-2016/2g94/2g94_pocket.pdb
REMARK  270 active torsions:
REMARK  status: ('A' for Active; 'I' for Inactive)
REMARK    1  A    between atoms: _1  and  _3
REMARK    2  A    between atoms: _3  and  _4
REMARK    3  A    between atoms: _3  and  _6
REMARK    4  A    between atoms: _6  and  _7
REMARK    5  A    between atoms: _7  and  _8
REMARK    6  A    between atoms: _8  and  _9
REMARK    7  A    between atoms: _9  and  _10
REMARK    8  A    between atoms: _14  and  _16
REMARK    9  A    between atoms: _16  and  _17
REMARK   10  A    between atoms: _16  and  _19
REMARK   11  A    between atoms: _19  and  _20
REMARK   12  A    between atoms: _22  and  _24
REMARK   13  A    between atoms: _24  and  _25
REMARK   14  A    between atoms: _27  and  _29
REMARK   15  A    between atoms: _29  and  _30
REMARK   16  A    between atoms: _29  and  _32
REMARK   17  A    between atoms: _32  and  _33
REMARK   18  A    between atoms: _33  and  _34
REMARK   19  A    between atoms: _39  and  _41
REMARK   20  A    between atoms: _41  and  _42
REMARK   21  A    between atoms: _44  and  _46
REMARK   22  A    between atoms: _46  and  _47
REMARK   23  A    between atoms: _46  and  _49
REMARK   24  A    between atoms: _49  and  _50
REMARK   25  A    between atoms: _55  and  _56
REMARK   26  A    between atoms: _58  and  _60
REMARK   27  A    between atoms: _60  and  _61
REMARK   28  A    between atoms: _60  and  _63
REMARK   29  A    between atoms: _63  and  _64
REMARK   30  A    between atoms: _69  and  _70
REMARK   31  A    between atoms: _72  and  _74
REMARK   32  A    between atoms: _74  and  _75
REMARK   33  A    between atoms: _74  and  _77
REMARK   34  A    between atoms: _77  and  _78
REMARK   35  A    between atoms: _81  and  _83
REMARK   36  A    between atoms: _83  and  _84
REMARK   37  A    between atoms: _83  and  _86
REMARK   38  A    between atoms: _89  and  _91
REMARK   39  A    between atoms: _91  and  _92
REMARK   40  A    between atoms: _91  and  _94
REMARK   41  A    between atoms: _94  and  _95
REMARK   42  A    between atoms: _98  and  _100
REMARK   43  A    between atoms: _100  and  _101
REMARK   44  A    between atoms: _100  and  _103
REMARK   45  A    between atoms: _103  and  _104
REMARK   46  A    between atoms: _107  and  _109
REMARK   47  A    between atoms: _109  and  _110
REMARK   48  A    between atoms: _112  and  _114
REMARK   49  A    between atoms: _114  and  _115
REMARK   50  A    between atoms: _114  and  _117
REMARK   51  A    between atoms: _117  and  _118
REMARK   52  A    between atoms: _120  and  _122
REMARK   53  A    between atoms: _122  and  _123
REMARK   54  A    between atoms: _122  and  _125
REMARK   55  A    between atoms: _125  and  _126
REMARK   56  A    between atoms: _128  and  _130
REMARK   57  A    between atoms: _130  and  _131
REMARK   58  A    between atoms: _130  and  _133
REMARK   59  A    between atoms: _133  and  _134
REMARK   60  A    between atoms: _139  and  _141
REMARK   61  A    between atoms: _141  and  _142
REMARK   62  A    between atoms: _141  and  _144
REMARK   63  A    between atoms: _144  and  _145
REMARK   64  A    between atoms: _150  and  _151
REMARK   65  A    between atoms: _153  and  _155
REMARK   66  A    between atoms: _155  and  _156
REMARK   67  A    between atoms: _155  and  _158
REMARK   68  A    between atoms: _162  and  _163
REMARK   69  A    between atoms: _168  and  _170
REMARK   70  A    between atoms: _170  and  _171
REMARK   71  A    between atoms: _170  and  _173
REMARK   72  A    between atoms: _173  and  _174
REMARK   73  A    between atoms: _179  and  _180
REMARK   74  A    between atoms: _182  and  _184
REMARK   75  A    between atoms: _184  and  _185
REMARK   76  A    between atoms: _184  and  _187
REMARK   77  A    between atoms: _187  and  _188
REMARK   78  A    between atoms: _191  and  _193
REMARK   79  A    between atoms: _193  and  _194
REMARK   80  A    between atoms: _193  and  _196
REMARK   81  A    between atoms: _196  and  _197
REMARK   82  A    between atoms: _197  and  _198
REMARK   83  A    between atoms: _203  and  _205
REMARK   84  A    between atoms: _205  and  _206
REMARK   85  A    between atoms: _208  and  _210
REMARK   86  A    between atoms: _210  and  _211
REMARK   87  A    between atoms: _210  and  _213
REMARK   88  A    between atoms: _213  and  _214
REMARK   89  A    between atoms: _214  and  _215
REMARK   90  A    between atoms: _215  and  _216
REMARK   91  A    between atoms: _216  and  _217
REMARK   92  A    between atoms: _221  and  _223
REMARK   93  A    between atoms: _223  and  _224
REMARK   94  A    between atoms: _223  and  _226
REMARK   95  A    between atoms: _226  and  _227
REMARK   96  A    between atoms: _237  and  _239
REMARK   97  A    between atoms: _239  and  _240
REMARK   98  A    between atoms: _239  and  _242
REMARK   99  A    between atoms: _242  and  _243
REMARK  100  A    between atoms: _246  and  _248
REMARK  101  A    between atoms: _248  and  _249
REMARK  102  A    between atoms: _248  and  _251
REMARK  103  A    between atoms: _251  and  _252
REMARK  104  A    between atoms: _252  and  _253
REMARK  105  A    between atoms: _253  and  _254
REMARK  106  A    between atoms: _254  and  _255
REMARK  107  A    between atoms: _259  and  _261
REMARK  108  A    between atoms: _261  and  _262
REMARK  109  A    between atoms: _261  and  _264
REMARK  110  A    between atoms: _264  and  _265
REMARK  111  A    between atoms: _271  and  _273
REMARK  112  A    between atoms: _273  and  _274
REMARK  113  A    between atoms: _273  and  _276
REMARK  114  A    between atoms: _276  and  _277
REMARK  115  A    between atoms: _283  and  _285
REMARK  116  A    between atoms: _285  and  _286
REMARK  117  A    between atoms: _285  and  _288
REMARK  118  A    between atoms: _288  and  _289
REMARK  119  A    between atoms: _292  and  _294
REMARK  120  A    between atoms: _294  and  _295
REMARK  121  A    between atoms: _294  and  _297
REMARK  122  A    between atoms: _297  and  _298
REMARK  123  A    between atoms: _300  and  _302
REMARK  124  A    between atoms: _302  and  _303
REMARK  125  A    between atoms: _302  and  _305
REMARK  126  A    between atoms: _305  and  _306
REMARK  127  A    between atoms: _316  and  _318
REMARK  128  A    between atoms: _318  and  _319
REMARK  129  A    between atoms: _321  and  _323
REMARK  130  A    between atoms: _323  and  _324
REMARK  131  A    between atoms: _323  and  _326
REMARK  132  A    between atoms: _326  and  _327
REMARK  133  A    between atoms: _330  and  _332
REMARK  134  A    between atoms: _332  and  _333
REMARK  135  A    between atoms: _332  and  _335
REMARK  136  A    between atoms: _335  and  _336
REMARK  137  A    between atoms: _339  and  _341
REMARK  138  A    between atoms: _341  and  _342
REMARK  139  A    between atoms: _341  and  _344
REMARK  140  A    between atoms: _344  and  _345
REMARK  141  A    between atoms: _348  and  _350
REMARK  142  A    between atoms: _350  and  _351
REMARK  143  A    between atoms: _354  and  _356
REMARK  144  A    between atoms: _356  and  _357
REMARK  145  A    between atoms: _356  and  _359
REMARK  146  A    between atoms: _359  and  _360
REMARK  147  A    between atoms: _365  and  _366
REMARK  148  A    between atoms: _368  and  _370
REMARK  149  A    between atoms: _370  and  _371
REMARK  150  A    between atoms: _370  and  _373
REMARK  151  A    between atoms: _373  and  _374
REMARK  152  A    between atoms: _374  and  _375
REMARK  153  A    between atoms: _378  and  _380
REMARK  154  A    between atoms: _380  and  _381
REMARK  155  A    between atoms: _380  and  _383
REMARK  156  A    between atoms: _383  and  _384
REMARK  157  A    between atoms: _387  and  _389
REMARK  158  A    between atoms: _389  and  _390
REMARK  159  A    between atoms: _393  and  _395
REMARK  160  A    between atoms: _395  and  _396
REMARK  161  A    between atoms: _395  and  _398
REMARK  162  A    between atoms: _398  and  _399
REMARK  163  A    between atoms: _399  and  _400
REMARK  164  A    between atoms: _400  and  _401
REMARK  165  A    between atoms: _410  and  _412
REMARK  166  A    between atoms: _412  and  _413
REMARK  167  A    between atoms: _412  and  _415
REMARK  168  A    between atoms: _415  and  _416
REMARK  169  A    between atoms: _419  and  _421
REMARK  170  A    between atoms: _421  and  _422
REMARK  171  A    between atoms: _421  and  _424
REMARK  172  A    between atoms: _424  and  _425
REMARK  173  A    between atoms: _435  and  _437
REMARK  174  A    between atoms: _437  and  _438
REMARK  175  A    between atoms: _437  and  _440
REMARK  176  A    between atoms: _440  and  _441
REMARK  177  A    between atoms: _446  and  _447
REMARK  178  A    between atoms: _449  and  _451
REMARK  179  A    between atoms: _451  and  _452
REMARK  180  A    between atoms: _451  and  _454
REMARK  181  A    between atoms: _454  and  _455
REMARK  182  A    between atoms: _455  and  _456
REMARK  183  A    between atoms: _456  and  _457
REMARK  184  A    between atoms: _457  and  _458
REMARK  185  A    between atoms: _462  and  _464
REMARK  186  A    between atoms: _464  and  _465
REMARK  187  A    between atoms: _464  and  _467
REMARK  188  A    between atoms: _467  and  _468
REMARK  189  A    between atoms: _471  and  _473
REMARK  190  A    between atoms: _473  and  _474
REMARK  191  A    between atoms: _473  and  _476
REMARK  192  A    between atoms: _479  and  _481
REMARK  193  A    between atoms: _481  and  _482
REMARK  194  A    between atoms: _481  and  _484
REMARK  195  A    between atoms: _484  and  _485
REMARK  196  A    between atoms: _488  and  _490
REMARK  197  A    between atoms: _490  and  _491
REMARK  198  A    between atoms: _490  and  _493
REMARK  199  A    between atoms: _493  and  _494
REMARK  200  A    between atoms: _496  and  _498
REMARK  201  A    between atoms: _498  and  _499
REMARK  202  A    between atoms: _501  and  _503
REMARK  203  A    between atoms: _503  and  _504
REMARK  204  A    between atoms: _503  and  _506
REMARK  205  A    between atoms: _506  and  _507
REMARK  206  A    between atoms: _510  and  _512
REMARK  207  A    between atoms: _512  and  _513
REMARK  208  A    between atoms: _512  and  _515
REMARK  209  A    between atoms: _515  and  _516
REMARK  210  A    between atoms: _519  and  _521
REMARK  211  A    between atoms: _521  and  _522
REMARK  212  A    between atoms: _521  and  _524
REMARK  213  A    between atoms: _524  and  _525
REMARK  214  A    between atoms: _530  and  _532
REMARK  215  A    between atoms: _532  and  _533
REMARK  216  A    between atoms: _532  and  _535
REMARK  217  A    between atoms: _535  and  _536
REMARK  218  A    between atoms: _539  and  _541
REMARK  219  A    between atoms: _541  and  _542
REMARK  220  A    between atoms: _541  and  _544
REMARK  221  A    between atoms: _544  and  _545
REMARK  222  A    between atoms: _545  and  _546
REMARK  223  A    between atoms: _546  and  _547
REMARK  224  A    between atoms: _556  and  _558
REMARK  225  A    between atoms: _558  and  _559
REMARK  226  A    between atoms: _558  and  _561
REMARK  227  A    between atoms: _561  and  _562
REMARK  228  A    between atoms: _562  and  _563
REMARK  229  A    between atoms: _563  and  _564
REMARK  230  A    between atoms: _573  and  _575
REMARK  231  A    between atoms: _575  and  _576
REMARK  232  A    between atoms: _575  and  _578
REMARK  233  A    between atoms: _578  and  _579
REMARK  234  A    between atoms: _581  and  _583
REMARK  235  A    between atoms: _583  and  _584
REMARK  236  A    between atoms: _583  and  _586
REMARK  237  A    between atoms: _586  and  _587
REMARK  238  A    between atoms: _587  and  _588
REMARK  239  A    between atoms: _593  and  _595
REMARK  240  A    between atoms: _595  and  _596
REMARK  241  A    between atoms: _595  and  _598
REMARK  242  A    between atoms: _598  and  _599
REMARK  243  A    between atoms: _601  and  _603
REMARK  244  A    between atoms: _603  and  _604
REMARK  245  A    between atoms: _603  and  _606
REMARK  246  A    between atoms: _606  and  _607
REMARK  247  A    between atoms: _610  and  _612
REMARK  248  A    between atoms: _612  and  _613
REMARK  249  A    between atoms: _612  and  _615
REMARK  250  A    between atoms: _615  and  _616
REMARK  251  A    between atoms: _619  and  _621
REMARK  252  A    between atoms: _621  and  _622
REMARK  253  A    between atoms: _621  and  _624
REMARK  254  A    between atoms: _627  and  _629
REMARK  255  A    between atoms: _629  and  _630
REMARK  256  A    between atoms: _632  and  _634
REMARK  257  A    between atoms: _634  and  _635
REMARK  258  A    between atoms: _638  and  _640
REMARK  259  A    between atoms: _640  and  _641
REMARK  260  A    between atoms: _640  and  _643
REMARK  261  A    between atoms: _646  and  _648
REMARK  262  A    between atoms: _648  and  _649
REMARK  263  A    between atoms: _648  and  _651
REMARK  264  A    between atoms: _651  and  _652
REMARK  265  A    between atoms: _652  and  _653
REMARK  266  A    between atoms: _655  and  _657
REMARK  267  A    between atoms: _657  and  _658
REMARK  268  A    between atoms: _657  and  _660
REMARK  269  A    between atoms: _660  and  _661
REMARK  270  A    between atoms: _661  and  _662
REMARK                            x       y       z     vdW  Elec       q    Type
REMARK                         _______ _______ _______ _____ _____    ______ ____
ROOT
ATOM      1  O   HOH     1     -18.943  -2.263  36.455  0.00  0.00    +0.000 OA
ENDROOT
TORSDOF 0
REMARK  Name = ../refined-set-2016/2g94/2g94_pocket.pdb
REMARK  270 active torsions:
REMARK  status: ('A' for Active; 'I' for Inactive)
REMARK    1  A    between atoms: _1  and  _3
REMARK    2  A    between atoms: _3  and  _4
REMARK    3  A    between atoms: _3  and  _6
REMARK    4  A    between atoms: _6  and  _7
REMARK    5  A    between atoms: _7  and  _8
REMARK    6  A    between atoms: _8  and  _9
REMARK    7  A    between atoms: _9  and  _10
REMARK    8  A    between atoms: _14  and  _16
REMARK    9  A    between atoms: _16  and  _17
REMARK   10  A    between atoms: _16  and  _19
REMARK   11  A    between atoms: _19  and  _20
REMARK   12  A    between atoms: _22  and  _24
REMARK   13  A    between atoms: _24  and  _25
REMARK   14  A    between atoms: _27  and  _29
REMARK   15  A    between atoms: _29  and  _30
REMARK   16  A    between atoms: _29  and  _32
REMARK   17  A    between atoms: _32  and  _33
REMARK   18  A    between atoms: _33  and  _34
REMARK   19  A    between atoms: _39  and  _41
REMARK   20  A    between atoms: _41  and  _42
REMARK   21  A    between atoms: _44  and  _46
REMARK   22  A    between atoms: _46  and  _47
REMARK   23  A    between atoms: _46  and  _49
REMARK   24  A    between atoms: _49  and  _50
REMARK   25  A    between atoms: _55  and  _56
REMARK   26  A    between atoms: _58  and  _60
REMARK   27  A    between atoms: _60  and  _61
REMARK   28  A    between atoms: _60  and  _63
REMARK   29  A    between atoms: _63  and  _64
REMARK   30  A    between atoms: _69  and  _70
REMARK   31  A    between atoms: _72  and  _74
REMARK   32  A    between atoms: _74  and  _75
REMARK   33  A    between atoms: _74  and  _77
REMARK   34  A    between atoms: _77  and  _78
REMARK   35  A    between atoms: _81  and  _83
REMARK   36  A    between atoms: _83  and  _84
REMARK   37  A    between atoms: _83  and  _86
REMARK   38  A    between atoms: _89  and  _91
REMARK   39  A    between atoms: _91  and  _92
REMARK   40  A    between atoms: _91  and  _94
REMARK   41  A    between atoms: _94  and  _95
REMARK   42  A    between atoms: _98  and  _100
REMARK   43  A    between atoms: _100  and  _101
REMARK   44  A    between atoms: _100  and  _103
REMARK   45  A    between atoms: _103  and  _104
REMARK   46  A    between atoms: _107  and  _109
REMARK   47  A    between atoms: _109  and  _110
REMARK   48  A    between atoms: _112  and  _114
REMARK   49  A    between atoms: _114  and  _115
REMARK   50  A    between atoms: _114  and  _117
REMARK   51  A    between atoms: _117  and  _118
REMARK   52  A    between atoms: _120  and  _122
REMARK   53  A    between atoms: _122  and  _123
REMARK   54  A    between atoms: _122  and  _125
REMARK   55  A    between atoms: _125  and  _126
REMARK   56  A    between atoms: _128  and  _130
REMARK   57  A    between atoms: _130  and  _131
REMARK   58  A    between atoms: _130  and  _133
REMARK   59  A    between atoms: _133  and  _134
REMARK   60  A    between atoms: _139  and  _141
REMARK   61  A    between atoms: _141  and  _142
REMARK   62  A    between atoms: _141  and  _144
REMARK   63  A    between atoms: _144  and  _145
REMARK   64  A    between atoms: _150  and  _151
REMARK   65  A    between atoms: _153  and  _155
REMARK   66  A    between atoms: _155  and  _156
REMARK   67  A    between atoms: _155  and  _158
REMARK   68  A    between atoms: _162  and  _163
REMARK   69  A    between atoms: _168  and  _170
REMARK   70  A    between atoms: _170  and  _171
REMARK   71  A    between atoms: _170  and  _173
REMARK   72  A    between atoms: _173  and  _174
REMARK   73  A    between atoms: _179  and  _180
REMARK   74  A    between atoms: _182  and  _184
REMARK   75  A    between atoms: _184  and  _185
REMARK   76  A    between atoms: _184  and  _187
REMARK   77  A    between atoms: _187  and  _188
REMARK   78  A    between atoms: _191  and  _193
REMARK   79  A    between atoms: _193  and  _194
REMARK   80  A    between atoms: _193  and  _196
REMARK   81  A    between atoms: _196  and  _197
REMARK   82  A    between atoms: _197  and  _198
REMARK   83  A    between atoms: _203  and  _205
REMARK   84  A    between atoms: _205  and  _206
REMARK   85  A    between atoms: _208  and  _210
REMARK   86  A    between atoms: _210  and  _211
REMARK   87  A    between atoms: _210  and  _213
REMARK   88  A    between atoms: _213  and  _214
REMARK   89  A    between atoms: _214  and  _215
REMARK   90  A    between atoms: _215  and  _216
REMARK   91  A    between atoms: _216  and  _217
REMARK   92  A    between atoms: _221  and  _223
REMARK   93  A    between atoms: _223  and  _224
REMARK   94  A    between atoms: _223  and  _226
REMARK   95  A    between atoms: _226  and  _227
REMARK   96  A    between atoms: _237  and  _239
REMARK   97  A    between atoms: _239  and  _240
REMARK   98  A    between atoms: _239  and  _242
REMARK   99  A    between atoms: _242  and  _243
REMARK  100  A    between atoms: _246  and  _248
REMARK  101  A    between atoms: _248  and  _249
REMARK  102  A    between atoms: _248  and  _251
REMARK  103  A    between atoms: _251  and  _252
REMARK  104  A    between atoms: _252  and  _253
REMARK  105  A    between atoms: _253  and  _254
REMARK  106  A    between atoms: _254  and  _255
REMARK  107  A    between atoms: _259  and  _261
REMARK  108  A    between atoms: _261  and  _262
REMARK  109  A    between atoms: _261  and  _264
REMARK  110  A    between atoms: _264  and  _265
REMARK  111  A    between atoms: _271  and  _273
REMARK  112  A    between atoms: _273  and  _274
REMARK  113  A    between atoms: _273  and  _276
REMARK  114  A    between atoms: _276  and  _277
REMARK  115  A    between atoms: _283  and  _285
REMARK  116  A    between atoms: _285  and  _286
REMARK  117  A    between atoms: _285  and  _288
REMARK  118  A    between atoms: _288  and  _289
REMARK  119  A    between atoms: _292  and  _294
REMARK  120  A    between atoms: _294  and  _295
REMARK  121  A    between atoms: _294  and  _297
REMARK  122  A    between atoms: _297  and  _298
REMARK  123  A    between atoms: _300  and  _302
REMARK  124  A    between atoms: _302  and  _303
REMARK  125  A    between atoms: _302  and  _305
REMARK  126  A    between atoms: _305  and  _306
REMARK  127  A    between atoms: _316  and  _318
REMARK  128  A    between atoms: _318  and  _319
REMARK  129  A    between atoms: _321  and  _323
REMARK  130  A    between atoms: _323  and  _324
REMARK  131  A    between atoms: _323  and  _326
REMARK  132  A    between atoms: _326  and  _327
REMARK  133  A    between atoms: _330  and  _332
REMARK  134  A    between atoms: _332  and  _333
REMARK  135  A    between atoms: _332  and  _335
REMARK  136  A    between atoms: _335  and  _336
REMARK  137  A    between atoms: _339  and  _341
REMARK  138  A    between atoms: _341  and  _342
REMARK  139  A    between atoms: _341  and  _344
REMARK  140  A    between atoms: _344  and  _345
REMARK  141  A    between atoms: _348  and  _350
REMARK  142  A    between atoms: _350  and  _351
REMARK  143  A    between atoms: _354  and  _356
REMARK  144  A    between atoms: _356  and  _357
REMARK  145  A    between atoms: _356  and  _359
REMARK  146  A    between atoms: _359  and  _360
REMARK  147  A    between atoms: _365  and  _366
REMARK  148  A    between atoms: _368  and  _370
REMARK  149  A    between atoms: _370  and  _371
REMARK  150  A    between atoms: _370  and  _373
REMARK  151  A    between atoms: _373  and  _374
REMARK  152  A    between atoms: _374  and  _375
REMARK  153  A    between atoms: _378  and  _380
REMARK  154  A    between atoms: _380  and  _381
REMARK  155  A    between atoms: _380  and  _383
REMARK  156  A    between atoms: _383  and  _384
REMARK  157  A    between atoms: _387  and  _389
REMARK  158  A    between atoms: _389  and  _390
REMARK  159  A    between atoms: _393  and  _395
REMARK  160  A    between atoms: _395  and  _396
REMARK  161  A    between atoms: _395  and  _398
REMARK  162  A    between atoms: _398  and  _399
REMARK  163  A    between atoms: _399  and  _400
REMARK  164  A    between atoms: _400  and  _401
REMARK  165  A    between atoms: _410  and  _412
REMARK  166  A    between atoms: _412  and  _413
REMARK  167  A    between atoms: _412  and  _415
REMARK  168  A    between atoms: _415  and  _416
REMARK  169  A    between atoms: _419  and  _421
REMARK  170  A    between atoms: _421  and  _422
REMARK  171  A    between atoms: _421  and  _424
REMARK  172  A    between atoms: _424  and  _425
REMARK  173  A    between atoms: _435  and  _437
REMARK  174  A    between atoms: _437  and  _438
REMARK  175  A    between atoms: _437  and  _440
REMARK  176  A    between atoms: _440  and  _441
REMARK  177  A    between atoms: _446  and  _447
REMARK  178  A    between atoms: _449  and  _451
REMARK  179  A    between atoms: _451  and  _452
REMARK  180  A    between atoms: _451  and  _454
REMARK  181  A    between atoms: _454  and  _455
REMARK  182  A    between atoms: _455  and  _456
REMARK  183  A    between atoms: _456  and  _457
REMARK  184  A    between atoms: _457  and  _458
REMARK  185  A    between atoms: _462  and  _464
REMARK  186  A    between atoms: _464  and  _465
REMARK  187  A    between atoms: _464  and  _467
REMARK  188  A    between atoms: _467  and  _468
REMARK  189  A    between atoms: _471  and  _473
REMARK  190  A    between atoms: _473  and  _474
REMARK  191  A    between atoms: _473  and  _476
REMARK  192  A    between atoms: _479  and  _481
REMARK  193  A    between atoms: _481  and  _482
REMARK  194  A    between atoms: _481  and  _484
REMARK  195  A    between atoms: _484  and  _485
REMARK  196  A    between atoms: _488  and  _490
REMARK  197  A    between atoms: _490  and  _491
REMARK  198  A    between atoms: _490  and  _493
REMARK  199  A    between atoms: _493  and  _494
REMARK  200  A    between atoms: _496  and  _498
REMARK  201  A    between atoms: _498  and  _499
REMARK  202  A    between atoms: _501  and  _503
REMARK  203  A    between atoms: _503  and  _504
REMARK  204  A    between atoms: _503  and  _506
REMARK  205  A    between atoms: _506  and  _507
REMARK  206  A    between atoms: _510  and  _512
REMARK  207  A    between atoms: _512  and  _513
REMARK  208  A    between atoms: _512  and  _515
REMARK  209  A    between atoms: _515  and  _516
REMARK  210  A    between atoms: _519  and  _521
REMARK  211  A    between atoms: _521  and  _522
REMARK  212  A    between atoms: _521  and  _524
REMARK  213  A    between atoms: _524  and  _525
REMARK  214  A    between atoms: _530  and  _532
REMARK  215  A    between atoms: _532  and  _533
REMARK  216  A    between atoms: _532  and  _535
REMARK  217  A    between atoms: _535  and  _536
REMARK  218  A    between atoms: _539  and  _541
REMARK  219  A    between atoms: _541  and  _542
REMARK  220  A    between atoms: _541  and  _544
REMARK  221  A    between atoms: _544  and  _545
REMARK  222  A    between atoms: _545  and  _546
REMARK  223  A    between atoms: _546  and  _547
REMARK  224  A    between atoms: _556  and  _558
REMARK  225  A    between atoms: _558  and  _559
REMARK  226  A    between atoms: _558  and  _561
REMARK  227  A    between atoms: _561  and  _562
REMARK  228  A    between atoms: _562  and  _563
REMARK  229  A    between atoms: _563  and  _564
REMARK  230  A    between atoms: _573  and  _575
REMARK  231  A    between atoms: _575  and  _576
REMARK  232  A    between atoms: _575  and  _578
REMARK  233  A    between atoms: _578  and  _579
REMARK  234  A    between atoms: _581  and  _583
REMARK  235  A    between atoms: _583  and  _584
REMARK  236  A    between atoms: _583  and  _586
REMARK  237  A    between atoms: _586  and  _587
REMARK  238  A    between atoms: _587  and  _588
REMARK  239  A    between atoms: _593  and  _595
REMARK  240  A    between atoms: _595  and  _596
REMARK  241  A    between atoms: _595  and  _598
REMARK  242  A    between atoms: _598  and  _599
REMARK  243  A    between atoms: _601  and  _603
REMARK  244  A    between atoms: _603  and  _604
REMARK  245  A    between atoms: _603  and  _606
REMARK  246  A    between atoms: _606  and  _607
REMARK  247  A    between atoms: _610  and  _612
REMARK  248  A    between atoms: _612  and  _613
REMARK  249  A    between atoms: _612  and  _615
REMARK  250  A    between atoms: _615  and  _616
REMARK  251  A    between atoms: _619  and  _621
REMARK  252  A    between atoms: _621  and  _622
REMARK  253  A    between atoms: _621  and  _624
REMARK  254  A    between atoms: _627  and  _629
REMARK  255  A    between atoms: _629  and  _630
REMARK  256  A    between atoms: _632  and  _634
REMARK  257  A    between atoms: _634  and  _635
REMARK  258  A    between atoms: _638  and  _640
REMARK  259  A    between atoms: _640  and  _641
REMARK  260  A    between atoms: _640  and  _643
REMARK  261  A    between atoms: _646  and  _648
REMARK  262  A    between atoms: _648  and  _649
REMARK  263  A    between atoms: _648  and  _651
REMARK  264  A    between atoms: _651  and  _652
REMARK  265  A    between atoms: _652  and  _653
REMARK  266  A    between atoms: _655  and  _657
REMARK  267  A    between atoms: _657  and  _658
REMARK  268  A    between atoms: _657  and  _660
REMARK  269  A    between atoms: _660  and  _661
REMARK  270  A    between atoms: _661  and  _662
REMARK                            x       y       z     vdW  Elec       q    Type
REMARK                         _______ _______ _______ _____ _____    ______ ____
ROOT
ATOM      1  O   HOH     1      -6.023   2.893  24.905  0.00  0.00    +0.000 OA
ENDROOT
TORSDOF 0
REMARK  Name = ../refined-set-2016/2g94/2g94_pocket.pdb
REMARK  270 active torsions:
REMARK  status: ('A' for Active; 'I' for Inactive)
REMARK    1  A    between atoms: _1  and  _3
REMARK    2  A    between atoms: _3  and  _4
REMARK    3  A    between atoms: _3  and  _6
REMARK    4  A    between atoms: _6  and  _7
REMARK    5  A    between atoms: _7  and  _8
REMARK    6  A    between atoms: _8  and  _9
REMARK    7  A    between atoms: _9  and  _10
REMARK    8  A    between atoms: _14  and  _16
REMARK    9  A    between atoms: _16  and  _17
REMARK   10  A    between atoms: _16  and  _19
REMARK   11  A    between atoms: _19  and  _20
REMARK   12  A    between atoms: _22  and  _24
REMARK   13  A    between atoms: _24  and  _25
REMARK   14  A    between atoms: _27  and  _29
REMARK   15  A    between atoms: _29  and  _30
REMARK   16  A    between atoms: _29  and  _32
REMARK   17  A    between atoms: _32  and  _33
REMARK   18  A    between atoms: _33  and  _34
REMARK   19  A    between atoms: _39  and  _41
REMARK   20  A    between atoms: _41  and  _42
REMARK   21  A    between atoms: _44  and  _46
REMARK   22  A    between atoms: _46  and  _47
REMARK   23  A    between atoms: _46  and  _49
REMARK   24  A    between atoms: _49  and  _50
REMARK   25  A    between atoms: _55  and  _56
REMARK   26  A    between atoms: _58  and  _60
REMARK   27  A    between atoms: _60  and  _61
REMARK   28  A    between atoms: _60  and  _63
REMARK   29  A    between atoms: _63  and  _64
REMARK   30  A    between atoms: _69  and  _70
REMARK   31  A    between atoms: _72  and  _74
REMARK   32  A    between atoms: _74  and  _75
REMARK   33  A    between atoms: _74  and  _77
REMARK   34  A    between atoms: _77  and  _78
REMARK   35  A    between atoms: _81  and  _83
REMARK   36  A    between atoms: _83  and  _84
REMARK   37  A    between atoms: _83  and  _86
REMARK   38  A    between atoms: _89  and  _91
REMARK   39  A    between atoms: _91  and  _92
REMARK   40  A    between atoms: _91  and  _94
REMARK   41  A    between atoms: _94  and  _95
REMARK   42  A    between atoms: _98  and  _100
REMARK   43  A    between atoms: _100  and  _101
REMARK   44  A    between atoms: _100  and  _103
REMARK   45  A    between atoms: _103  and  _104
REMARK   46  A    between atoms: _107  and  _109
REMARK   47  A    between atoms: _109  and  _110
REMARK   48  A    between atoms: _112  and  _114
REMARK   49  A    between atoms: _114  and  _115
REMARK   50  A    between atoms: _114  and  _117
REMARK   51  A    between atoms: _117  and  _118
REMARK   52  A    between atoms: _120  and  _122
REMARK   53  A    between atoms: _122  and  _123
REMARK   54  A    between atoms: _122  and  _125
REMARK   55  A    between atoms: _125  and  _126
REMARK   56  A    between atoms: _128  and  _130
REMARK   57  A    between atoms: _130  and  _131
REMARK   58  A    between atoms: _130  and  _133
REMARK   59  A    between atoms: _133  and  _134
REMARK   60  A    between atoms: _139  and  _141
REMARK   61  A    between atoms: _141  and  _142
REMARK   62  A    between atoms: _141  and  _144
REMARK   63  A    between atoms: _144  and  _145
REMARK   64  A    between atoms: _150  and  _151
REMARK   65  A    between atoms: _153  and  _155
REMARK   66  A    between atoms: _155  and  _156
REMARK   67  A    between atoms: _155  and  _158
REMARK   68  A    between atoms: _162  and  _163
REMARK   69  A    between atoms: _168  and  _170
REMARK   70  A    between atoms: _170  and  _171
REMARK   71  A    between atoms: _170  and  _173
REMARK   72  A    between atoms: _173  and  _174
REMARK   73  A    between atoms: _179  and  _180
REMARK   74  A    between atoms: _182  and  _184
REMARK   75  A    between atoms: _184  and  _185
REMARK   76  A    between atoms: _184  and  _187
REMARK   77  A    between atoms: _187  and  _188
REMARK   78  A    between atoms: _191  and  _193
REMARK   79  A    between atoms: _193  and  _194
REMARK   80  A    between atoms: _193  and  _196
REMARK   81  A    between atoms: _196  and  _197
REMARK   82  A    between atoms: _197  and  _198
REMARK   83  A    between atoms: _203  and  _205
REMARK   84  A    between atoms: _205  and  _206
REMARK   85  A    between atoms: _208  and  _210
REMARK   86  A    between atoms: _210  and  _211
REMARK   87  A    between atoms: _210  and  _213
REMARK   88  A    between atoms: _213  and  _214
REMARK   89  A    between atoms: _214  and  _215
REMARK   90  A    between atoms: _215  and  _216
REMARK   91  A    between atoms: _216  and  _217
REMARK   92  A    between atoms: _221  and  _223
REMARK   93  A    between atoms: _223  and  _224
REMARK   94  A    between atoms: _223  and  _226
REMARK   95  A    between atoms: _226  and  _227
REMARK   96  A    between atoms: _237  and  _239
REMARK   97  A    between atoms: _239  and  _240
REMARK   98  A    between atoms: _239  and  _242
REMARK   99  A    between atoms: _242  and  _243
REMARK  100  A    between atoms: _246  and  _248
REMARK  101  A    between atoms: _248  and  _249
REMARK  102  A    between atoms: _248  and  _251
REMARK  103  A    between atoms: _251  and  _252
REMARK  104  A    between atoms: _252  and  _253
REMARK  105  A    between atoms: _253  and  _254
REMARK  106  A    between atoms: _254  and  _255
REMARK  107  A    between atoms: _259  and  _261
REMARK  108  A    between atoms: _261  and  _262
REMARK  109  A    between atoms: _261  and  _264
REMARK  110  A    between atoms: _264  and  _265
REMARK  111  A    between atoms: _271  and  _273
REMARK  112  A    between atoms: _273  and  _274
REMARK  113  A    between atoms: _273  and  _276
REMARK  114  A    between atoms: _276  and  _277
REMARK  115  A    between atoms: _283  and  _285
REMARK  116  A    between atoms: _285  and  _286
REMARK  117  A    between atoms: _285  and  _288
REMARK  118  A    between atoms: _288  and  _289
REMARK  119  A    between atoms: _292  and  _294
REMARK  120  A    between atoms: _294  and  _295
REMARK  121  A    between atoms: _294  and  _297
REMARK  122  A    between atoms: _297  and  _298
REMARK  123  A    between atoms: _300  and  _302
REMARK  124  A    between atoms: _302  and  _303
REMARK  125  A    between atoms: _302  and  _305
REMARK  126  A    between atoms: _305  and  _306
REMARK  127  A    between atoms: _316  and  _318
REMARK  128  A    between atoms: _318  and  _319
REMARK  129  A    between atoms: _321  and  _323
REMARK  130  A    between atoms: _323  and  _324
REMARK  131  A    between atoms: _323  and  _326
REMARK  132  A    between atoms: _326  and  _327
REMARK  133  A    between atoms: _330  and  _332
REMARK  134  A    between atoms: _332  and  _333
REMARK  135  A    between atoms: _332  and  _335
REMARK  136  A    between atoms: _335  and  _336
REMARK  137  A    between atoms: _339  and  _341
REMARK  138  A    between atoms: _341  and  _342
REMARK  139  A    between atoms: _341  and  _344
REMARK  140  A    between atoms: _344  and  _345
REMARK  141  A    between atoms: _348  and  _350
REMARK  142  A    between atoms: _350  and  _351
REMARK  143  A    between atoms: _354  and  _356
REMARK  144  A    between atoms: _356  and  _357
REMARK  145  A    between atoms: _356  and  _359
REMARK  146  A    between atoms: _359  and  _360
REMARK  147  A    between atoms: _365  and  _366
REMARK  148  A    between atoms: _368  and  _370
REMARK  149  A    between atoms: _370  and  _371
REMARK  150  A    between atoms: _370  and  _373
REMARK  151  A    between atoms: _373  and  _374
REMARK  152  A    between atoms: _374  and  _375
REMARK  153  A    between atoms: _378  and  _380
REMARK  154  A    between atoms: _380  and  _381
REMARK  155  A    between atoms: _380  and  _383
REMARK  156  A    between atoms: _383  and  _384
REMARK  157  A    between atoms: _387  and  _389
REMARK  158  A    between atoms: _389  and  _390
REMARK  159  A    between atoms: _393  and  _395
REMARK  160  A    between atoms: _395  and  _396
REMARK  161  A    between atoms: _395  and  _398
REMARK  162  A    between atoms: _398  and  _399
REMARK  163  A    between atoms: _399  and  _400
REMARK  164  A    between atoms: _400  and  _401
REMARK  165  A    between atoms: _410  and  _412
REMARK  166  A    between atoms: _412  and  _413
REMARK  167  A    between atoms: _412  and  _415
REMARK  168  A    between atoms: _415  and  _416
REMARK  169  A    between atoms: _419  and  _421
REMARK  170  A    between atoms: _421  and  _422
REMARK  171  A    between atoms: _421  and  _424
REMARK  172  A    between atoms: _424  and  _425
REMARK  173  A    between atoms: _435  and  _437
REMARK  174  A    between atoms: _437  and  _438
REMARK  175  A    between atoms: _437  and  _440
REMARK  176  A    between atoms: _440  and  _441
REMARK  177  A    between atoms: _446  and  _447
REMARK  178  A    between atoms: _449  and  _451
REMARK  179  A    between atoms: _451  and  _452
REMARK  180  A    between atoms: _451  and  _454
REMARK  181  A    between atoms: _454  and  _455
REMARK  182  A    between atoms: _455  and  _456
REMARK  183  A    between atoms: _456  and  _457
REMARK  184  A    between atoms: _457  and  _458
REMARK  185  A    between atoms: _462  and  _464
REMARK  186  A    between atoms: _464  and  _465
REMARK  187  A    between atoms: _464  and  _467
REMARK  188  A    between atoms: _467  and  _468
REMARK  189  A    between atoms: _471  and  _473
REMARK  190  A    between atoms: _473  and  _474
REMARK  191  A    between atoms: _473  and  _476
REMARK  192  A    between atoms: _479  and  _481
REMARK  193  A    between atoms: _481  and  _482
REMARK  194  A    between atoms: _481  and  _484
REMARK  195  A    between atoms: _484  and  _485
REMARK  196  A    between atoms: _488  and  _490
REMARK  197  A    between atoms: _490  and  _491
REMARK  198  A    between atoms: _490  and  _493
REMARK  199  A    between atoms: _493  and  _494
REMARK  200  A    between atoms: _496  and  _498
REMARK  201  A    between atoms: _498  and  _499
REMARK  202  A    between atoms: _501  and  _503
REMARK  203  A    between atoms: _503  and  _504
REMARK  204  A    between atoms: _503  and  _506
REMARK  205  A    between atoms: _506  and  _507
REMARK  206  A    between atoms: _510  and  _512
REMARK  207  A    between atoms: _512  and  _513
REMARK  208  A    between atoms: _512  and  _515
REMARK  209  A    between atoms: _515  and  _516
REMARK  210  A    between atoms: _519  and  _521
REMARK  211  A    between atoms: _521  and  _522
REMARK  212  A    between atoms: _521  and  _524
REMARK  213  A    between atoms: _524  and  _525
REMARK  214  A    between atoms: _530  and  _532
REMARK  215  A    between atoms: _532  and  _533
REMARK  216  A    between atoms: _532  and  _535
REMARK  217  A    between atoms: _535  and  _536
REMARK  218  A    between atoms: _539  and  _541
REMARK  219  A    between atoms: _541  and  _542
REMARK  220  A    between atoms: _541  and  _544
REMARK  221  A    between atoms: _544  and  _545
REMARK  222  A    between atoms: _545  and  _546
REMARK  223  A    between atoms: _546  and  _547
REMARK  224  A    between atoms: _556  and  _558
REMARK  225  A    between atoms: _558  and  _559
REMARK  226  A    between atoms: _558  and  _561
REMARK  227  A    between atoms: _561  and  _562
REMARK  228  A    between atoms: _562  and  _563
REMARK  229  A    between atoms: _563  and  _564
REMARK  230  A    between atoms: _573  and  _575
REMARK  231  A    between atoms: _575  and  _576
REMARK  232  A    between atoms: _575  and  _578
REMARK  233  A    between atoms: _578  and  _579
REMARK  234  A    between atoms: _581  and  _583
REMARK  235  A    between atoms: _583  and  _584
REMARK  236  A    between atoms: _583  and  _586
REMARK  237  A    between atoms: _586  and  _587
REMARK  238  A    between atoms: _587  and  _588
REMARK  239  A    between atoms: _593  and  _595
REMARK  240  A    between atoms: _595  and  _596
REMARK  241  A    between atoms: _595  and  _598
REMARK  242  A    between atoms: _598  and  _599
REMARK  243  A    between atoms: _601  and  _603
REMARK  244  A    between atoms: _603  and  _604
REMARK  245  A    between atoms: _603  and  _606
REMARK  246  A    between atoms: _606  and  _607
REMARK  247  A    between atoms: _610  and  _612
REMARK  248  A    between atoms: _612  and  _613
REMARK  249  A    between atoms: _612  and  _615
REMARK  250  A    between atoms: _615  and  _616
REMARK  251  A    between atoms: _619  and  _621
REMARK  252  A    between atoms: _621  and  _622
REMARK  253  A    between atoms: _621  and  _624
REMARK  254  A    between atoms: _627  and  _629
REMARK  255  A    between atoms: _629  and  _630
REMARK  256  A    between atoms: _632  and  _634
REMARK  257  A    between atoms: _634  and  _635
REMARK  258  A    between atoms: _638  and  _640
REMARK  259  A    between atoms: _640  and  _641
REMARK  260  A    between atoms: _640  and  _643
REMARK  261  A    between atoms: _646  and  _648
REMARK  262  A    between atoms: _648  and  _649
REMARK  263  A    between atoms: _648  and  _651
REMARK  264  A    between atoms: _651  and  _652
REMARK  265  A    between atoms: _652  and  _653
REMARK  266  A    between atoms: _655  and  _657
REMARK  267  A    between atoms: _657  and  _658
REMARK  268  A    between atoms: _657  and  _660
REMARK  269  A    between atoms: _660  and  _661
REMARK  270  A    between atoms: _661  and  _662
REMARK                            x       y       z     vdW  Elec       q    Type
REMARK                         _______ _______ _______ _____ _____    ______ ____
ROOT
ATOM      1  O   HOH     1     -18.326  -8.185  31.543  0.00  0.00    +0.000 OA
ENDROOT
TORSDOF 0
REMARK  Name = ../refined-set-2016/2g94/2g94_pocket.pdb
REMARK  270 active torsions:
REMARK  status: ('A' for Active; 'I' for Inactive)
REMARK    1  A    between atoms: _1  and  _3
REMARK    2  A    between atoms: _3  and  _4
REMARK    3  A    between atoms: _3  and  _6
REMARK    4  A    between atoms: _6  and  _7
REMARK    5  A    between atoms: _7  and  _8
REMARK    6  A    between atoms: _8  and  _9
REMARK    7  A    between atoms: _9  and  _10
REMARK    8  A    between atoms: _14  and  _16
REMARK    9  A    between atoms: _16  and  _17
REMARK   10  A    between atoms: _16  and  _19
REMARK   11  A    between atoms: _19  and  _20
REMARK   12  A    between atoms: _22  and  _24
REMARK   13  A    between atoms: _24  and  _25
REMARK   14  A    between atoms: _27  and  _29
REMARK   15  A    between atoms: _29  and  _30
REMARK   16  A    between atoms: _29  and  _32
REMARK   17  A    between atoms: _32  and  _33
REMARK   18  A    between atoms: _33  and  _34
REMARK   19  A    between atoms: _39  and  _41
REMARK   20  A    between atoms: _41  and  _42
REMARK   21  A    between atoms: _44  and  _46
REMARK   22  A    between atoms: _46  and  _47
REMARK   23  A    between atoms: _46  and  _49
REMARK   24  A    between atoms: _49  and  _50
REMARK   25  A    between atoms: _55  and  _56
REMARK   26  A    between atoms: _58  and  _60
REMARK   27  A    between atoms: _60  and  _61
REMARK   28  A    between atoms: _60  and  _63
REMARK   29  A    between atoms: _63  and  _64
REMARK   30  A    between atoms: _69  and  _70
REMARK   31  A    between atoms: _72  and  _74
REMARK   32  A    between atoms: _74  and  _75
REMARK   33  A    between atoms: _74  and  _77
REMARK   34  A    between atoms: _77  and  _78
REMARK   35  A    between atoms: _81  and  _83
REMARK   36  A    between atoms: _83  and  _84
REMARK   37  A    between atoms: _83  and  _86
REMARK   38  A    between atoms: _89  and  _91
REMARK   39  A    between atoms: _91  and  _92
REMARK   40  A    between atoms: _91  and  _94
REMARK   41  A    between atoms: _94  and  _95
REMARK   42  A    between atoms: _98  and  _100
REMARK   43  A    between atoms: _100  and  _101
REMARK   44  A    between atoms: _100  and  _103
REMARK   45  A    between atoms: _103  and  _104
REMARK   46  A    between atoms: _107  and  _109
REMARK   47  A    between atoms: _109  and  _110
REMARK   48  A    between atoms: _112  and  _114
REMARK   49  A    between atoms: _114  and  _115
REMARK   50  A    between atoms: _114  and  _117
REMARK   51  A    between atoms: _117  and  _118
REMARK   52  A    between atoms: _120  and  _122
REMARK   53  A    between atoms: _122  and  _123
REMARK   54  A    between atoms: _122  and  _125
REMARK   55  A    between atoms: _125  and  _126
REMARK   56  A    between atoms: _128  and  _130
REMARK   57  A    between atoms: _130  and  _131
REMARK   58  A    between atoms: _130  and  _133
REMARK   59  A    between atoms: _133  and  _134
REMARK   60  A    between atoms: _139  and  _141
REMARK   61  A    between atoms: _141  and  _142
REMARK   62  A    between atoms: _141  and  _144
REMARK   63  A    between atoms: _144  and  _145
REMARK   64  A    between atoms: _150  and  _151
REMARK   65  A    between atoms: _153  and  _155
REMARK   66  A    between atoms: _155  and  _156
REMARK   67  A    between atoms: _155  and  _158
REMARK   68  A    between atoms: _162  and  _163
REMARK   69  A    between atoms: _168  and  _170
REMARK   70  A    between atoms: _170  and  _171
REMARK   71  A    between atoms: _170  and  _173
REMARK   72  A    between atoms: _173  and  _174
REMARK   73  A    between atoms: _179  and  _180
REMARK   74  A    between atoms: _182  and  _184
REMARK   75  A    between atoms: _184  and  _185
REMARK   76  A    between atoms: _184  and  _187
REMARK   77  A    between atoms: _187  and  _188
REMARK   78  A    between atoms: _191  and  _193
REMARK   79  A    between atoms: _193  and  _194
REMARK   80  A    between atoms: _193  and  _196
REMARK   81  A    between atoms: _196  and  _197
REMARK   82  A    between atoms: _197  and  _198
REMARK   83  A    between atoms: _203  and  _205
REMARK   84  A    between atoms: _205  and  _206
REMARK   85  A    between atoms: _208  and  _210
REMARK   86  A    between atoms: _210  and  _211
REMARK   87  A    between atoms: _210  and  _213
REMARK   88  A    between atoms: _213  and  _214
REMARK   89  A    between atoms: _214  and  _215
REMARK   90  A    between atoms: _215  and  _216
REMARK   91  A    between atoms: _216  and  _217
REMARK   92  A    between atoms: _221  and  _223
REMARK   93  A    between atoms: _223  and  _224
REMARK   94  A    between atoms: _223  and  _226
REMARK   95  A    between atoms: _226  and  _227
REMARK   96  A    between atoms: _237  and  _239
REMARK   97  A    between atoms: _239  and  _240
REMARK   98  A    between atoms: _239  and  _242
REMARK   99  A    between atoms: _242  and  _243
REMARK  100  A    between atoms: _246  and  _248
REMARK  101  A    between atoms: _248  and  _249
REMARK  102  A    between atoms: _248  and  _251
REMARK  103  A    between atoms: _251  and  _252
REMARK  104  A    between atoms: _252  and  _253
REMARK  105  A    between atoms: _253  and  _254
REMARK  106  A    between atoms: _254  and  _255
REMARK  107  A    between atoms: _259  and  _261
REMARK  108  A    between atoms: _261  and  _262
REMARK  109  A    between atoms: _261  and  _264
REMARK  110  A    between atoms: _264  and  _265
REMARK  111  A    between atoms: _271  and  _273
REMARK  112  A    between atoms: _273  and  _274
REMARK  113  A    between atoms: _273  and  _276
REMARK  114  A    between atoms: _276  and  _277
REMARK  115  A    between atoms: _283  and  _285
REMARK  116  A    between atoms: _285  and  _286
REMARK  117  A    between atoms: _285  and  _288
REMARK  118  A    between atoms: _288  and  _289
REMARK  119  A    between atoms: _292  and  _294
REMARK  120  A    between atoms: _294  and  _295
REMARK  121  A    between atoms: _294  and  _297
REMARK  122  A    between atoms: _297  and  _298
REMARK  123  A    between atoms: _300  and  _302
REMARK  124  A    between atoms: _302  and  _303
REMARK  125  A    between atoms: _302  and  _305
REMARK  126  A    between atoms: _305  and  _306
REMARK  127  A    between atoms: _316  and  _318
REMARK  128  A    between atoms: _318  and  _319
REMARK  129  A    between atoms: _321  and  _323
REMARK  130  A    between atoms: _323  and  _324
REMARK  131  A    between atoms: _323  and  _326
REMARK  132  A    between atoms: _326  and  _327
REMARK  133  A    between atoms: _330  and  _332
REMARK  134  A    between atoms: _332  and  _333
REMARK  135  A    between atoms: _332  and  _335
REMARK  136  A    between atoms: _335  and  _336
REMARK  137  A    between atoms: _339  and  _341
REMARK  138  A    between atoms: _341  and  _342
REMARK  139  A    between atoms: _341  and  _344
REMARK  140  A    between atoms: _344  and  _345
REMARK  141  A    between atoms: _348  and  _350
REMARK  142  A    between atoms: _350  and  _351
REMARK  143  A    between atoms: _354  and  _356
REMARK  144  A    between atoms: _356  and  _357
REMARK  145  A    between atoms: _356  and  _359
REMARK  146  A    between atoms: _359  and  _360
REMARK  147  A    between atoms: _365  and  _366
REMARK  148  A    between atoms: _368  and  _370
REMARK  149  A    between atoms: _370  and  _371
REMARK  150  A    between atoms: _370  and  _373
REMARK  151  A    between atoms: _373  and  _374
REMARK  152  A    between atoms: _374  and  _375
REMARK  153  A    between atoms: _378  and  _380
REMARK  154  A    between atoms: _380  and  _381
REMARK  155  A    between atoms: _380  and  _383
REMARK  156  A    between atoms: _383  and  _384
REMARK  157  A    between atoms: _387  and  _389
REMARK  158  A    between atoms: _389  and  _390
REMARK  159  A    between atoms: _393  and  _395
REMARK  160  A    between atoms: _395  and  _396
REMARK  161  A    between atoms: _395  and  _398
REMARK  162  A    between atoms: _398  and  _399
REMARK  163  A    between atoms: _399  and  _400
REMARK  164  A    between atoms: _400  and  _401
REMARK  165  A    between atoms: _410  and  _412
REMARK  166  A    between atoms: _412  and  _413
REMARK  167  A    between atoms: _412  and  _415
REMARK  168  A    between atoms: _415  and  _416
REMARK  169  A    between atoms: _419  and  _421
REMARK  170  A    between atoms: _421  and  _422
REMARK  171  A    between atoms: _421  and  _424
REMARK  172  A    between atoms: _424  and  _425
REMARK  173  A    between atoms: _435  and  _437
REMARK  174  A    between atoms: _437  and  _438
REMARK  175  A    between atoms: _437  and  _440
REMARK  176  A    between atoms: _440  and  _441
REMARK  177  A    between atoms: _446  and  _447
REMARK  178  A    between atoms: _449  and  _451
REMARK  179  A    between atoms: _451  and  _452
REMARK  180  A    between atoms: _451  and  _454
REMARK  181  A    between atoms: _454  and  _455
REMARK  182  A    between atoms: _455  and  _456
REMARK  183  A    between atoms: _456  and  _457
REMARK  184  A    between atoms: _457  and  _458
REMARK  185  A    between atoms: _462  and  _464
REMARK  186  A    between atoms: _464  and  _465
REMARK  187  A    between atoms: _464  and  _467
REMARK  188  A    between atoms: _467  and  _468
REMARK  189  A    between atoms: _471  and  _473
REMARK  190  A    between atoms: _473  and  _474
REMARK  191  A    between atoms: _473  and  _476
REMARK  192  A    between atoms: _479  and  _481
REMARK  193  A    between atoms: _481  and  _482
REMARK  194  A    between atoms: _481  and  _484
REMARK  195  A    between atoms: _484  and  _485
REMARK  196  A    between atoms: _488  and  _490
REMARK  197  A    between atoms: _490  and  _491
REMARK  198  A    between atoms: _490  and  _493
REMARK  199  A    between atoms: _493  and  _494
REMARK  200  A    between atoms: _496  and  _498
REMARK  201  A    between atoms: _498  and  _499
REMARK  202  A    between atoms: _501  and  _503
REMARK  203  A    between atoms: _503  and  _504
REMARK  204  A    between atoms: _503  and  _506
REMARK  205  A    between atoms: _506  and  _507
REMARK  206  A    between atoms: _510  and  _512
REMARK  207  A    between atoms: _512  and  _513
REMARK  208  A    between atoms: _512  and  _515
REMARK  209  A    between atoms: _515  and  _516
REMARK  210  A    between atoms: _519  and  _521
REMARK  211  A    between atoms: _521  and  _522
REMARK  212  A    between atoms: _521  and  _524
REMARK  213  A    between atoms: _524  and  _525
REMARK  214  A    between atoms: _530  and  _532
REMARK  215  A    between atoms: _532  and  _533
REMARK  216  A    between atoms: _532  and  _535
REMARK  217  A    between atoms: _535  and  _536
REMARK  218  A    between atoms: _539  and  _541
REMARK  219  A    between atoms: _541  and  _542
REMARK  220  A    between atoms: _541  and  _544
REMARK  221  A    between atoms: _544  and  _545
REMARK  222  A    between atoms: _545  and  _546
REMARK  223  A    between atoms: _546  and  _547
REMARK  224  A    between atoms: _556  and  _558
REMARK  225  A    between atoms: _558  and  _559
REMARK  226  A    between atoms: _558  and  _561
REMARK  227  A    between atoms: _561  and  _562
REMARK  228  A    between atoms: _562  and  _563
REMARK  229  A    between atoms: _563  and  _564
REMARK  230  A    between atoms: _573  and  _575
REMARK  231  A    between atoms: _575  and  _576
REMARK  232  A    between atoms: _575  and  _578
REMARK  233  A    between atoms: _578  and  _579
REMARK  234  A    between atoms: _581  and  _583
REMARK  235  A    between atoms: _583  and  _584
REMARK  236  A    between atoms: _583  and  _586
REMARK  237  A    between atoms: _586  and  _587
REMARK  238  A    between atoms: _587  and  _588
REMARK  239  A    between atoms: _593  and  _595
REMARK  240  A    between atoms: _595  and  _596
REMARK  241  A    between atoms: _595  and  _598
REMARK  242  A    between atoms: _598  and  _599
REMARK  243  A    between atoms: _601  and  _603
REMARK  244  A    between atoms: _603  and  _604
REMARK  245  A    between atoms: _603  and  _606
REMARK  246  A    between atoms: _606  and  _607
REMARK  247  A    between atoms: _610  and  _612
REMARK  248  A    between atoms: _612  and  _613
REMARK  249  A    between atoms: _612  and  _615
REMARK  250  A    between atoms: _615  and  _616
REMARK  251  A    between atoms: _619  and  _621
REMARK  252  A    between atoms: _621  and  _622
REMARK  253  A    between atoms: _621  and  _624
REMARK  254  A    between atoms: _627  and  _629
REMARK  255  A    between atoms: _629  and  _630
REMARK  256  A    between atoms: _632  and  _634
REMARK  257  A    between atoms: _634  and  _635
REMARK  258  A    between atoms: _638  and  _640
REMARK  259  A    between atoms: _640  and  _641
REMARK  260  A    between atoms: _640  and  _643
REMARK  261  A    between atoms: _646  and  _648
REMARK  262  A    between atoms: _648  and  _649
REMARK  263  A    between atoms: _648  and  _651
REMARK  264  A    between atoms: _651  and  _652
REMARK  265  A    between atoms: _652  and  _653
REMARK  266  A    between atoms: _655  and  _657
REMARK  267  A    between atoms: _657  and  _658
REMARK  268  A    between atoms: _657  and  _660
REMARK  269  A    between atoms: _660  and  _661
REMARK  270  A    between atoms: _661  and  _662
REMARK                            x       y       z     vdW  Elec       q    Type
REMARK                         _______ _______ _______ _____ _____    ______ ____
ROOT
ATOM      1  O   HOH     1      -9.499  -7.027  25.615  0.00  0.00    +0.000 OA
ENDROOT
TORSDOF 0
REMARK  Name = ../refined-set-2016/2g94/2g94_pocket.pdb
REMARK  270 active torsions:
REMARK  status: ('A' for Active; 'I' for Inactive)
REMARK    1  A    between atoms: _1  and  _3
REMARK    2  A    between atoms: _3  and  _4
REMARK    3  A    between atoms: _3  and  _6
REMARK    4  A    between atoms: _6  and  _7
REMARK    5  A    between atoms: _7  and  _8
REMARK    6  A    between atoms: _8  and  _9
REMARK    7  A    between atoms: _9  and  _10
REMARK    8  A    between atoms: _14  and  _16
REMARK    9  A    between atoms: _16  and  _17
REMARK   10  A    between atoms: _16  and  _19
REMARK   11  A    between atoms: _19  and  _20
REMARK   12  A    between atoms: _22  and  _24
REMARK   13  A    between atoms: _24  and  _25
REMARK   14  A    between atoms: _27  and  _29
REMARK   15  A    between atoms: _29  and  _30
REMARK   16  A    between atoms: _29  and  _32
REMARK   17  A    between atoms: _32  and  _33
REMARK   18  A    between atoms: _33  and  _34
REMARK   19  A    between atoms: _39  and  _41
REMARK   20  A    between atoms: _41  and  _42
REMARK   21  A    between atoms: _44  and  _46
REMARK   22  A    between atoms: _46  and  _47
REMARK   23  A    between atoms: _46  and  _49
REMARK   24  A    between atoms: _49  and  _50
REMARK   25  A    between atoms: _55  and  _56
REMARK   26  A    between atoms: _58  and  _60
REMARK   27  A    between atoms: _60  and  _61
REMARK   28  A    between atoms: _60  and  _63
REMARK   29  A    between atoms: _63  and  _64
REMARK   30  A    between atoms: _69  and  _70
REMARK   31  A    between atoms: _72  and  _74
REMARK   32  A    between atoms: _74  and  _75
REMARK   33  A    between atoms: _74  and  _77
REMARK   34  A    between atoms: _77  and  _78
REMARK   35  A    between atoms: _81  and  _83
REMARK   36  A    between atoms: _83  and  _84
REMARK   37  A    between atoms: _83  and  _86
REMARK   38  A    between atoms: _89  and  _91
REMARK   39  A    between atoms: _91  and  _92
REMARK   40  A    between atoms: _91  and  _94
REMARK   41  A    between atoms: _94  and  _95
REMARK   42  A    between atoms: _98  and  _100
REMARK   43  A    between atoms: _100  and  _101
REMARK   44  A    between atoms: _100  and  _103
REMARK   45  A    between atoms: _103  and  _104
REMARK   46  A    between atoms: _107  and  _109
REMARK   47  A    between atoms: _109  and  _110
REMARK   48  A    between atoms: _112  and  _114
REMARK   49  A    between atoms: _114  and  _115
REMARK   50  A    between atoms: _114  and  _117
REMARK   51  A    between atoms: _117  and  _118
REMARK   52  A    between atoms: _120  and  _122
REMARK   53  A    between atoms: _122  and  _123
REMARK   54  A    between atoms: _122  and  _125
REMARK   55  A    between atoms: _125  and  _126
REMARK   56  A    between atoms: _128  and  _130
REMARK   57  A    between atoms: _130  and  _131
REMARK   58  A    between atoms: _130  and  _133
REMARK   59  A    between atoms: _133  and  _134
REMARK   60  A    between atoms: _139  and  _141
REMARK   61  A    between atoms: _141  and  _142
REMARK   62  A    between atoms: _141  and  _144
REMARK   63  A    between atoms: _144  and  _145
REMARK   64  A    between atoms: _150  and  _151
REMARK   65  A    between atoms: _153  and  _155
REMARK   66  A    between atoms: _155  and  _156
REMARK   67  A    between atoms: _155  and  _158
REMARK   68  A    between atoms: _162  and  _163
REMARK   69  A    between atoms: _168  and  _170
REMARK   70  A    between atoms: _170  and  _171
REMARK   71  A    between atoms: _170  and  _173
REMARK   72  A    between atoms: _173  and  _174
REMARK   73  A    between atoms: _179  and  _180
REMARK   74  A    between atoms: _182  and  _184
REMARK   75  A    between atoms: _184  and  _185
REMARK   76  A    between atoms: _184  and  _187
REMARK   77  A    between atoms: _187  and  _188
REMARK   78  A    between atoms: _191  and  _193
REMARK   79  A    between atoms: _193  and  _194
REMARK   80  A    between atoms: _193  and  _196
REMARK   81  A    between atoms: _196  and  _197
REMARK   82  A    between atoms: _197  and  _198
REMARK   83  A    between atoms: _203  and  _205
REMARK   84  A    between atoms: _205  and  _206
REMARK   85  A    between atoms: _208  and  _210
REMARK   86  A    between atoms: _210  and  _211
REMARK   87  A    between atoms: _210  and  _213
REMARK   88  A    between atoms: _213  and  _214
REMARK   89  A    between atoms: _214  and  _215
REMARK   90  A    between atoms: _215  and  _216
REMARK   91  A    between atoms: _216  and  _217
REMARK   92  A    between atoms: _221  and  _223
REMARK   93  A    between atoms: _223  and  _224
REMARK   94  A    between atoms: _223  and  _226
REMARK   95  A    between atoms: _226  and  _227
REMARK   96  A    between atoms: _237  and  _239
REMARK   97  A    between atoms: _239  and  _240
REMARK   98  A    between atoms: _239  and  _242
REMARK   99  A    between atoms: _242  and  _243
REMARK  100  A    between atoms: _246  and  _248
REMARK  101  A    between atoms: _248  and  _249
REMARK  102  A    between atoms: _248  and  _251
REMARK  103  A    between atoms: _251  and  _252
REMARK  104  A    between atoms: _252  and  _253
REMARK  105  A    between atoms: _253  and  _254
REMARK  106  A    between atoms: _254  and  _255
REMARK  107  A    between atoms: _259  and  _261
REMARK  108  A    between atoms: _261  and  _262
REMARK  109  A    between atoms: _261  and  _264
REMARK  110  A    between atoms: _264  and  _265
REMARK  111  A    between atoms: _271  and  _273
REMARK  112  A    between atoms: _273  and  _274
REMARK  113  A    between atoms: _273  and  _276
REMARK  114  A    between atoms: _276  and  _277
REMARK  115  A    between atoms: _283  and  _285
REMARK  116  A    between atoms: _285  and  _286
REMARK  117  A    between atoms: _285  and  _288
REMARK  118  A    between atoms: _288  and  _289
REMARK  119  A    between atoms: _292  and  _294
REMARK  120  A    between atoms: _294  and  _295
REMARK  121  A    between atoms: _294  and  _297
REMARK  122  A    between atoms: _297  and  _298
REMARK  123  A    between atoms: _300  and  _302
REMARK  124  A    between atoms: _302  and  _303
REMARK  125  A    between atoms: _302  and  _305
REMARK  126  A    between atoms: _305  and  _306
REMARK  127  A    between atoms: _316  and  _318
REMARK  128  A    between atoms: _318  and  _319
REMARK  129  A    between atoms: _321  and  _323
REMARK  130  A    between atoms: _323  and  _324
REMARK  131  A    between atoms: _323  and  _326
REMARK  132  A    between atoms: _326  and  _327
REMARK  133  A    between atoms: _330  and  _332
REMARK  134  A    between atoms: _332  and  _333
REMARK  135  A    between atoms: _332  and  _335
REMARK  136  A    between atoms: _335  and  _336
REMARK  137  A    between atoms: _339  and  _341
REMARK  138  A    between atoms: _341  and  _342
REMARK  139  A    between atoms: _341  and  _344
REMARK  140  A    between atoms: _344  and  _345
REMARK  141  A    between atoms: _348  and  _350
REMARK  142  A    between atoms: _350  and  _351
REMARK  143  A    between atoms: _354  and  _356
REMARK  144  A    between atoms: _356  and  _357
REMARK  145  A    between atoms: _356  and  _359
REMARK  146  A    between atoms: _359  and  _360
REMARK  147  A    between atoms: _365  and  _366
REMARK  148  A    between atoms: _368  and  _370
REMARK  149  A    between atoms: _370  and  _371
REMARK  150  A    between atoms: _370  and  _373
REMARK  151  A    between atoms: _373  and  _374
REMARK  152  A    between atoms: _374  and  _375
REMARK  153  A    between atoms: _378  and  _380
REMARK  154  A    between atoms: _380  and  _381
REMARK  155  A    between atoms: _380  and  _383
REMARK  156  A    between atoms: _383  and  _384
REMARK  157  A    between atoms: _387  and  _389
REMARK  158  A    between atoms: _389  and  _390
REMARK  159  A    between atoms: _393  and  _395
REMARK  160  A    between atoms: _395  and  _396
REMARK  161  A    between atoms: _395  and  _398
REMARK  162  A    between atoms: _398  and  _399
REMARK  163  A    between atoms: _399  and  _400
REMARK  164  A    between atoms: _400  and  _401
REMARK  165  A    between atoms: _410  and  _412
REMARK  166  A    between atoms: _412  and  _413
REMARK  167  A    between atoms: _412  and  _415
REMARK  168  A    between atoms: _415  and  _416
REMARK  169  A    between atoms: _419  and  _421
REMARK  170  A    between atoms: _421  and  _422
REMARK  171  A    between atoms: _421  and  _424
REMARK  172  A    between atoms: _424  and  _425
REMARK  173  A    between atoms: _435  and  _437
REMARK  174  A    between atoms: _437  and  _438
REMARK  175  A    between atoms: _437  and  _440
REMARK  176  A    between atoms: _440  and  _441
REMARK  177  A    between atoms: _446  and  _447
REMARK  178  A    between atoms: _449  and  _451
REMARK  179  A    between atoms: _451  and  _452
REMARK  180  A    between atoms: _451  and  _454
REMARK  181  A    between atoms: _454  and  _455
REMARK  182  A    between atoms: _455  and  _456
REMARK  183  A    between atoms: _456  and  _457
REMARK  184  A    between atoms: _457  and  _458
REMARK  185  A    between atoms: _462  and  _464
REMARK  186  A    between atoms: _464  and  _465
REMARK  187  A    between atoms: _464  and  _467
REMARK  188  A    between atoms: _467  and  _468
REMARK  189  A    between atoms: _471  and  _473
REMARK  190  A    between atoms: _473  and  _474
REMARK  191  A    between atoms: _473  and  _476
REMARK  192  A    between atoms: _479  and  _481
REMARK  193  A    between atoms: _481  and  _482
REMARK  194  A    between atoms: _481  and  _484
REMARK  195  A    between atoms: _484  and  _485
REMARK  196  A    between atoms: _488  and  _490
REMARK  197  A    between atoms: _490  and  _491
REMARK  198  A    between atoms: _490  and  _493
REMARK  199  A    between atoms: _493  and  _494
REMARK  200  A    between atoms: _496  and  _498
REMARK  201  A    between atoms: _498  and  _499
REMARK  202  A    between atoms: _501  and  _503
REMARK  203  A    between atoms: _503  and  _504
REMARK  204  A    between atoms: _503  and  _506
REMARK  205  A    between atoms: _506  and  _507
REMARK  206  A    between atoms: _510  and  _512
REMARK  207  A    between atoms: _512  and  _513
REMARK  208  A    between atoms: _512  and  _515
REMARK  209  A    between atoms: _515  and  _516
REMARK  210  A    between atoms: _519  and  _521
REMARK  211  A    between atoms: _521  and  _522
REMARK  212  A    between atoms: _521  and  _524
REMARK  213  A    between atoms: _524  and  _525
REMARK  214  A    between atoms: _530  and  _532
REMARK  215  A    between atoms: _532  and  _533
REMARK  216  A    between atoms: _532  and  _535
REMARK  217  A    between atoms: _535  and  _536
REMARK  218  A    between atoms: _539  and  _541
REMARK  219  A    between atoms: _541  and  _542
REMARK  220  A    between atoms: _541  and  _544
REMARK  221  A    between atoms: _544  and  _545
REMARK  222  A    between atoms: _545  and  _546
REMARK  223  A    between atoms: _546  and  _547
REMARK  224  A    between atoms: _556  and  _558
REMARK  225  A    between atoms: _558  and  _559
REMARK  226  A    between atoms: _558  and  _561
REMARK  227  A    between atoms: _561  and  _562
REMARK  228  A    between atoms: _562  and  _563
REMARK  229  A    between atoms: _563  and  _564
REMARK  230  A    between atoms: _573  and  _575
REMARK  231  A    between atoms: _575  and  _576
REMARK  232  A    between atoms: _575  and  _578
REMARK  233  A    between atoms: _578  and  _579
REMARK  234  A    between atoms: _581  and  _583
REMARK  235  A    between atoms: _583  and  _584
REMARK  236  A    between atoms: _583  and  _586
REMARK  237  A    between atoms: _586  and  _587
REMARK  238  A    between atoms: _587  and  _588
REMARK  239  A    between atoms: _593  and  _595
REMARK  240  A    between atoms: _595  and  _596
REMARK  241  A    between atoms: _595  and  _598
REMARK  242  A    between atoms: _598  and  _599
REMARK  243  A    between atoms: _601  and  _603
REMARK  244  A    between atoms: _603  and  _604
REMARK  245  A    between atoms: _603  and  _606
REMARK  246  A    between atoms: _606  and  _607
REMARK  247  A    between atoms: _610  and  _612
REMARK  248  A    between atoms: _612  and  _613
REMARK  249  A    between atoms: _612  and  _615
REMARK  250  A    between atoms: _615  and  _616
REMARK  251  A    between atoms: _619  and  _621
REMARK  252  A    between atoms: _621  and  _622
REMARK  253  A    between atoms: _621  and  _624
REMARK  254  A    between atoms: _627  and  _629
REMARK  255  A    between atoms: _629  and  _630
REMARK  256  A    between atoms: _632  and  _634
REMARK  257  A    between atoms: _634  and  _635
REMARK  258  A    between atoms: _638  and  _640
REMARK  259  A    between atoms: _640  and  _641
REMARK  260  A    between atoms: _640  and  _643
REMARK  261  A    between atoms: _646  and  _648
REMARK  262  A    between atoms: _648  and  _649
REMARK  263  A    between atoms: _648  and  _651
REMARK  264  A    between atoms: _651  and  _652
REMARK  265  A    between atoms: _652  and  _653
REMARK  266  A    between atoms: _655  and  _657
REMARK  267  A    between atoms: _657  and  _658
REMARK  268  A    between atoms: _657  and  _660
REMARK  269  A    between atoms: _660  and  _661
REMARK  270  A    between atoms: _661  and  _662
REMARK                            x       y       z     vdW  Elec       q    Type
REMARK                         _______ _______ _______ _____ _____    ______ ____
ROOT
ATOM      1  O   HOH     1     -15.727  -0.888  30.933  0.00  0.00    +0.000 OA
ENDROOT
TORSDOF 0
REMARK  Name = ../refined-set-2016/2g94/2g94_pocket.pdb
REMARK  270 active torsions:
REMARK  status: ('A' for Active; 'I' for Inactive)
REMARK    1  A    between atoms: _1  and  _3
REMARK    2  A    between atoms: _3  and  _4
REMARK    3  A    between atoms: _3  and  _6
REMARK    4  A    between atoms: _6  and  _7
REMARK    5  A    between atoms: _7  and  _8
REMARK    6  A    between atoms: _8  and  _9
REMARK    7  A    between atoms: _9  and  _10
REMARK    8  A    between atoms: _14  and  _16
REMARK    9  A    between atoms: _16  and  _17
REMARK   10  A    between atoms: _16  and  _19
REMARK   11  A    between atoms: _19  and  _20
REMARK   12  A    between atoms: _22  and  _24
REMARK   13  A    between atoms: _24  and  _25
REMARK   14  A    between atoms: _27  and  _29
REMARK   15  A    between atoms: _29  and  _30
REMARK   16  A    between atoms: _29  and  _32
REMARK   17  A    between atoms: _32  and  _33
REMARK   18  A    between atoms: _33  and  _34
REMARK   19  A    between atoms: _39  and  _41
REMARK   20  A    between atoms: _41  and  _42
REMARK   21  A    between atoms: _44  and  _46
REMARK   22  A    between atoms: _46  and  _47
REMARK   23  A    between atoms: _46  and  _49
REMARK   24  A    between atoms: _49  and  _50
REMARK   25  A    between atoms: _55  and  _56
REMARK   26  A    between atoms: _58  and  _60
REMARK   27  A    between atoms: _60  and  _61
REMARK   28  A    between atoms: _60  and  _63
REMARK   29  A    between atoms: _63  and  _64
REMARK   30  A    between atoms: _69  and  _70
REMARK   31  A    between atoms: _72  and  _74
REMARK   32  A    between atoms: _74  and  _75
REMARK   33  A    between atoms: _74  and  _77
REMARK   34  A    between atoms: _77  and  _78
REMARK   35  A    between atoms: _81  and  _83
REMARK   36  A    between atoms: _83  and  _84
REMARK   37  A    between atoms: _83  and  _86
REMARK   38  A    between atoms: _89  and  _91
REMARK   39  A    between atoms: _91  and  _92
REMARK   40  A    between atoms: _91  and  _94
REMARK   41  A    between atoms: _94  and  _95
REMARK   42  A    between atoms: _98  and  _100
REMARK   43  A    between atoms: _100  and  _101
REMARK   44  A    between atoms: _100  and  _103
REMARK   45  A    between atoms: _103  and  _104
REMARK   46  A    between atoms: _107  and  _109
REMARK   47  A    between atoms: _109  and  _110
REMARK   48  A    between atoms: _112  and  _114
REMARK   49  A    between atoms: _114  and  _115
REMARK   50  A    between atoms: _114  and  _117
REMARK   51  A    between atoms: _117  and  _118
REMARK   52  A    between atoms: _120  and  _122
REMARK   53  A    between atoms: _122  and  _123
REMARK   54  A    between atoms: _122  and  _125
REMARK   55  A    between atoms: _125  and  _126
REMARK   56  A    between atoms: _128  and  _130
REMARK   57  A    between atoms: _130  and  _131
REMARK   58  A    between atoms: _130  and  _133
REMARK   59  A    between atoms: _133  and  _134
REMARK   60  A    between atoms: _139  and  _141
REMARK   61  A    between atoms: _141  and  _142
REMARK   62  A    between atoms: _141  and  _144
REMARK   63  A    between atoms: _144  and  _145
REMARK   64  A    between atoms: _150  and  _151
REMARK   65  A    between atoms: _153  and  _155
REMARK   66  A    between atoms: _155  and  _156
REMARK   67  A    between atoms: _155  and  _158
REMARK   68  A    between atoms: _162  and  _163
REMARK   69  A    between atoms: _168  and  _170
REMARK   70  A    between atoms: _170  and  _171
REMARK   71  A    between atoms: _170  and  _173
REMARK   72  A    between atoms: _173  and  _174
REMARK   73  A    between atoms: _179  and  _180
REMARK   74  A    between atoms: _182  and  _184
REMARK   75  A    between atoms: _184  and  _185
REMARK   76  A    between atoms: _184  and  _187
REMARK   77  A    between atoms: _187  and  _188
REMARK   78  A    between atoms: _191  and  _193
REMARK   79  A    between atoms: _193  and  _194
REMARK   80  A    between atoms: _193  and  _196
REMARK   81  A    between atoms: _196  and  _197
REMARK   82  A    between atoms: _197  and  _198
REMARK   83  A    between atoms: _203  and  _205
REMARK   84  A    between atoms: _205  and  _206
REMARK   85  A    between atoms: _208  and  _210
REMARK   86  A    between atoms: _210  and  _211
REMARK   87  A    between atoms: _210  and  _213
REMARK   88  A    between atoms: _213  and  _214
REMARK   89  A    between atoms: _214  and  _215
REMARK   90  A    between atoms: _215  and  _216
REMARK   91  A    between atoms: _216  and  _217
REMARK   92  A    between atoms: _221  and  _223
REMARK   93  A    between atoms: _223  and  _224
REMARK   94  A    between atoms: _223  and  _226
REMARK   95  A    between atoms: _226  and  _227
REMARK   96  A    between atoms: _237  and  _239
REMARK   97  A    between atoms: _239  and  _240
REMARK   98  A    between atoms: _239  and  _242
REMARK   99  A    between atoms: _242  and  _243
REMARK  100  A    between atoms: _246  and  _248
REMARK  101  A    between atoms: _248  and  _249
REMARK  102  A    between atoms: _248  and  _251
REMARK  103  A    between atoms: _251  and  _252
REMARK  104  A    between atoms: _252  and  _253
REMARK  105  A    between atoms: _253  and  _254
REMARK  106  A    between atoms: _254  and  _255
REMARK  107  A    between atoms: _259  and  _261
REMARK  108  A    between atoms: _261  and  _262
REMARK  109  A    between atoms: _261  and  _264
REMARK  110  A    between atoms: _264  and  _265
REMARK  111  A    between atoms: _271  and  _273
REMARK  112  A    between atoms: _273  and  _274
REMARK  113  A    between atoms: _273  and  _276
REMARK  114  A    between atoms: _276  and  _277
REMARK  115  A    between atoms: _283  and  _285
REMARK  116  A    between atoms: _285  and  _286
REMARK  117  A    between atoms: _285  and  _288
REMARK  118  A    between atoms: _288  and  _289
REMARK  119  A    between atoms: _292  and  _294
REMARK  120  A    between atoms: _294  and  _295
REMARK  121  A    between atoms: _294  and  _297
REMARK  122  A    between atoms: _297  and  _298
REMARK  123  A    between atoms: _300  and  _302
REMARK  124  A    between atoms: _302  and  _303
REMARK  125  A    between atoms: _302  and  _305
REMARK  126  A    between atoms: _305  and  _306
REMARK  127  A    between atoms: _316  and  _318
REMARK  128  A    between atoms: _318  and  _319
REMARK  129  A    between atoms: _321  and  _323
REMARK  130  A    between atoms: _323  and  _324
REMARK  131  A    between atoms: _323  and  _326
REMARK  132  A    between atoms: _326  and  _327
REMARK  133  A    between atoms: _330  and  _332
REMARK  134  A    between atoms: _332  and  _333
REMARK  135  A    between atoms: _332  and  _335
REMARK  136  A    between atoms: _335  and  _336
REMARK  137  A    between atoms: _339  and  _341
REMARK  138  A    between atoms: _341  and  _342
REMARK  139  A    between atoms: _341  and  _344
REMARK  140  A    between atoms: _344  and  _345
REMARK  141  A    between atoms: _348  and  _350
REMARK  142  A    between atoms: _350  and  _351
REMARK  143  A    between atoms: _354  and  _356
REMARK  144  A    between atoms: _356  and  _357
REMARK  145  A    between atoms: _356  and  _359
REMARK  146  A    between atoms: _359  and  _360
REMARK  147  A    between atoms: _365  and  _366
REMARK  148  A    between atoms: _368  and  _370
REMARK  149  A    between atoms: _370  and  _371
REMARK  150  A    between atoms: _370  and  _373
REMARK  151  A    between atoms: _373  and  _374
REMARK  152  A    between atoms: _374  and  _375
REMARK  153  A    between atoms: _378  and  _380
REMARK  154  A    between atoms: _380  and  _381
REMARK  155  A    between atoms: _380  and  _383
REMARK  156  A    between atoms: _383  and  _384
REMARK  157  A    between atoms: _387  and  _389
REMARK  158  A    between atoms: _389  and  _390
REMARK  159  A    between atoms: _393  and  _395
REMARK  160  A    between atoms: _395  and  _396
REMARK  161  A    between atoms: _395  and  _398
REMARK  162  A    between atoms: _398  and  _399
REMARK  163  A    between atoms: _399  and  _400
REMARK  164  A    between atoms: _400  and  _401
REMARK  165  A    between atoms: _410  and  _412
REMARK  166  A    between atoms: _412  and  _413
REMARK  167  A    between atoms: _412  and  _415
REMARK  168  A    between atoms: _415  and  _416
REMARK  169  A    between atoms: _419  and  _421
REMARK  170  A    between atoms: _421  and  _422
REMARK  171  A    between atoms: _421  and  _424
REMARK  172  A    between atoms: _424  and  _425
REMARK  173  A    between atoms: _435  and  _437
REMARK  174  A    between atoms: _437  and  _438
REMARK  175  A    between atoms: _437  and  _440
REMARK  176  A    between atoms: _440  and  _441
REMARK  177  A    between atoms: _446  and  _447
REMARK  178  A    between atoms: _449  and  _451
REMARK  179  A    between atoms: _451  and  _452
REMARK  180  A    between atoms: _451  and  _454
REMARK  181  A    between atoms: _454  and  _455
REMARK  182  A    between atoms: _455  and  _456
REMARK  183  A    between atoms: _456  and  _457
REMARK  184  A    between atoms: _457  and  _458
REMARK  185  A    between atoms: _462  and  _464
REMARK  186  A    between atoms: _464  and  _465
REMARK  187  A    between atoms: _464  and  _467
REMARK  188  A    between atoms: _467  and  _468
REMARK  189  A    between atoms: _471  and  _473
REMARK  190  A    between atoms: _473  and  _474
REMARK  191  A    between atoms: _473  and  _476
REMARK  192  A    between atoms: _479  and  _481
REMARK  193  A    between atoms: _481  and  _482
REMARK  194  A    between atoms: _481  and  _484
REMARK  195  A    between atoms: _484  and  _485
REMARK  196  A    between atoms: _488  and  _490
REMARK  197  A    between atoms: _490  and  _491
REMARK  198  A    between atoms: _490  and  _493
REMARK  199  A    between atoms: _493  and  _494
REMARK  200  A    between atoms: _496  and  _498
REMARK  201  A    between atoms: _498  and  _499
REMARK  202  A    between atoms: _501  and  _503
REMARK  203  A    between atoms: _503  and  _504
REMARK  204  A    between atoms: _503  and  _506
REMARK  205  A    between atoms: _506  and  _507
REMARK  206  A    between atoms: _510  and  _512
REMARK  207  A    between atoms: _512  and  _513
REMARK  208  A    between atoms: _512  and  _515
REMARK  209  A    between atoms: _515  and  _516
REMARK  210  A    between atoms: _519  and  _521
REMARK  211  A    between atoms: _521  and  _522
REMARK  212  A    between atoms: _521  and  _524
REMARK  213  A    between atoms: _524  and  _525
REMARK  214  A    between atoms: _530  and  _532
REMARK  215  A    between atoms: _532  and  _533
REMARK  216  A    between atoms: _532  and  _535
REMARK  217  A    between atoms: _535  and  _536
REMARK  218  A    between atoms: _539  and  _541
REMARK  219  A    between atoms: _541  and  _542
REMARK  220  A    between atoms: _541  and  _544
REMARK  221  A    between atoms: _544  and  _545
REMARK  222  A    between atoms: _545  and  _546
REMARK  223  A    between atoms: _546  and  _547
REMARK  224  A    between atoms: _556  and  _558
REMARK  225  A    between atoms: _558  and  _559
REMARK  226  A    between atoms: _558  and  _561
REMARK  227  A    between atoms: _561  and  _562
REMARK  228  A    between atoms: _562  and  _563
REMARK  229  A    between atoms: _563  and  _564
REMARK  230  A    between atoms: _573  and  _575
REMARK  231  A    between atoms: _575  and  _576
REMARK  232  A    between atoms: _575  and  _578
REMARK  233  A    between atoms: _578  and  _579
REMARK  234  A    between atoms: _581  and  _583
REMARK  235  A    between atoms: _583  and  _584
REMARK  236  A    between atoms: _583  and  _586
REMARK  237  A    between atoms: _586  and  _587
REMARK  238  A    between atoms: _587  and  _588
REMARK  239  A    between atoms: _593  and  _595
REMARK  240  A    between atoms: _595  and  _596
REMARK  241  A    between atoms: _595  and  _598
REMARK  242  A    between atoms: _598  and  _599
REMARK  243  A    between atoms: _601  and  _603
REMARK  244  A    between atoms: _603  and  _604
REMARK  245  A    between atoms: _603  and  _606
REMARK  246  A    between atoms: _606  and  _607
REMARK  247  A    between atoms: _610  and  _612
REMARK  248  A    between atoms: _612  and  _613
REMARK  249  A    between atoms: _612  and  _615
REMARK  250  A    between atoms: _615  and  _616
REMARK  251  A    between atoms: _619  and  _621
REMARK  252  A    between atoms: _621  and  _622
REMARK  253  A    between atoms: _621  and  _624
REMARK  254  A    between atoms: _627  and  _629
REMARK  255  A    between atoms: _629  and  _630
REMARK  256  A    between atoms: _632  and  _634
REMARK  257  A    between atoms: _634  and  _635
REMARK  258  A    between atoms: _638  and  _640
REMARK  259  A    between atoms: _640  and  _641
REMARK  260  A    between atoms: _640  and  _643
REMARK  261  A    between atoms: _646  and  _648
REMARK  262  A    between atoms: _648  and  _649
REMARK  263  A    between atoms: _648  and  _651
REMARK  264  A    between atoms: _651  and  _652
REMARK  265  A    between atoms: _652  and  _653
REMARK  266  A    between atoms: _655  and  _657
REMARK  267  A    between atoms: _657  and  _658
REMARK  268  A    between atoms: _657  and  _660
REMARK  269  A    between atoms: _660  and  _661
REMARK  270  A    between atoms: _661  and  _662
REMARK                            x       y       z     vdW  Elec       q    Type
REMARK                         _______ _______ _______ _____ _____    ______ ____
ROOT
ATOM      1  O   HOH     1     -14.821  -6.880  24.924  0.00  0.00    +0.000 OA
ENDROOT
TORSDOF 0
REMARK  Name = ../refined-set-2016/2g94/2g94_pocket.pdb
REMARK  270 active torsions:
REMARK  status: ('A' for Active; 'I' for Inactive)
REMARK    1  A    between atoms: _1  and  _3
REMARK    2  A    between atoms: _3  and  _4
REMARK    3  A    between atoms: _3  and  _6
REMARK    4  A    between atoms: _6  and  _7
REMARK    5  A    between atoms: _7  and  _8
REMARK    6  A    between atoms: _8  and  _9
REMARK    7  A    between atoms: _9  and  _10
REMARK    8  A    between atoms: _14  and  _16
REMARK    9  A    between atoms: _16  and  _17
REMARK   10  A    between atoms: _16  and  _19
REMARK   11  A    between atoms: _19  and  _20
REMARK   12  A    between atoms: _22  and  _24
REMARK   13  A    between atoms: _24  and  _25
REMARK   14  A    between atoms: _27  and  _29
REMARK   15  A    between atoms: _29  and  _30
REMARK   16  A    between atoms: _29  and  _32
REMARK   17  A    between atoms: _32  and  _33
REMARK   18  A    between atoms: _33  and  _34
REMARK   19  A    between atoms: _39  and  _41
REMARK   20  A    between atoms: _41  and  _42
REMARK   21  A    between atoms: _44  and  _46
REMARK   22  A    between atoms: _46  and  _47
REMARK   23  A    between atoms: _46  and  _49
REMARK   24  A    between atoms: _49  and  _50
REMARK   25  A    between atoms: _55  and  _56
REMARK   26  A    between atoms: _58  and  _60
REMARK   27  A    between atoms: _60  and  _61
REMARK   28  A    between atoms: _60  and  _63
REMARK   29  A    between atoms: _63  and  _64
REMARK   30  A    between atoms: _69  and  _70
REMARK   31  A    between atoms: _72  and  _74
REMARK   32  A    between atoms: _74  and  _75
REMARK   33  A    between atoms: _74  and  _77
REMARK   34  A    between atoms: _77  and  _78
REMARK   35  A    between atoms: _81  and  _83
REMARK   36  A    between atoms: _83  and  _84
REMARK   37  A    between atoms: _83  and  _86
REMARK   38  A    between atoms: _89  and  _91
REMARK   39  A    between atoms: _91  and  _92
REMARK   40  A    between atoms: _91  and  _94
REMARK   41  A    between atoms: _94  and  _95
REMARK   42  A    between atoms: _98  and  _100
REMARK   43  A    between atoms: _100  and  _101
REMARK   44  A    between atoms: _100  and  _103
REMARK   45  A    between atoms: _103  and  _104
REMARK   46  A    between atoms: _107  and  _109
REMARK   47  A    between atoms: _109  and  _110
REMARK   48  A    between atoms: _112  and  _114
REMARK   49  A    between atoms: _114  and  _115
REMARK   50  A    between atoms: _114  and  _117
REMARK   51  A    between atoms: _117  and  _118
REMARK   52  A    between atoms: _120  and  _122
REMARK   53  A    between atoms: _122  and  _123
REMARK   54  A    between atoms: _122  and  _125
REMARK   55  A    between atoms: _125  and  _126
REMARK   56  A    between atoms: _128  and  _130
REMARK   57  A    between atoms: _130  and  _131
REMARK   58  A    between atoms: _130  and  _133
REMARK   59  A    between atoms: _133  and  _134
REMARK   60  A    between atoms: _139  and  _141
REMARK   61  A    between atoms: _141  and  _142
REMARK   62  A    between atoms: _141  and  _144
REMARK   63  A    between atoms: _144  and  _145
REMARK   64  A    between atoms: _150  and  _151
REMARK   65  A    between atoms: _153  and  _155
REMARK   66  A    between atoms: _155  and  _156
REMARK   67  A    between atoms: _155  and  _158
REMARK   68  A    between atoms: _162  and  _163
REMARK   69  A    between atoms: _168  and  _170
REMARK   70  A    between atoms: _170  and  _171
REMARK   71  A    between atoms: _170  and  _173
REMARK   72  A    between atoms: _173  and  _174
REMARK   73  A    between atoms: _179  and  _180
REMARK   74  A    between atoms: _182  and  _184
REMARK   75  A    between atoms: _184  and  _185
REMARK   76  A    between atoms: _184  and  _187
REMARK   77  A    between atoms: _187  and  _188
REMARK   78  A    between atoms: _191  and  _193
REMARK   79  A    between atoms: _193  and  _194
REMARK   80  A    between atoms: _193  and  _196
REMARK   81  A    between atoms: _196  and  _197
REMARK   82  A    between atoms: _197  and  _198
REMARK   83  A    between atoms: _203  and  _205
REMARK   84  A    between atoms: _205  and  _206
REMARK   85  A    between atoms: _208  and  _210
REMARK   86  A    between atoms: _210  and  _211
REMARK   87  A    between atoms: _210  and  _213
REMARK   88  A    between atoms: _213  and  _214
REMARK   89  A    between atoms: _214  and  _215
REMARK   90  A    between atoms: _215  and  _216
REMARK   91  A    between atoms: _216  and  _217
REMARK   92  A    between atoms: _221  and  _223
REMARK   93  A    between atoms: _223  and  _224
REMARK   94  A    between atoms: _223  and  _226
REMARK   95  A    between atoms: _226  and  _227
REMARK   96  A    between atoms: _237  and  _239
REMARK   97  A    between atoms: _239  and  _240
REMARK   98  A    between atoms: _239  and  _242
REMARK   99  A    between atoms: _242  and  _243
REMARK  100  A    between atoms: _246  and  _248
REMARK  101  A    between atoms: _248  and  _249
REMARK  102  A    between atoms: _248  and  _251
REMARK  103  A    between atoms: _251  and  _252
REMARK  104  A    between atoms: _252  and  _253
REMARK  105  A    between atoms: _253  and  _254
REMARK  106  A    between atoms: _254  and  _255
REMARK  107  A    between atoms: _259  and  _261
REMARK  108  A    between atoms: _261  and  _262
REMARK  109  A    between atoms: _261  and  _264
REMARK  110  A    between atoms: _264  and  _265
REMARK  111  A    between atoms: _271  and  _273
REMARK  112  A    between atoms: _273  and  _274
REMARK  113  A    between atoms: _273  and  _276
REMARK  114  A    between atoms: _276  and  _277
REMARK  115  A    between atoms: _283  and  _285
REMARK  116  A    between atoms: _285  and  _286
REMARK  117  A    between atoms: _285  and  _288
REMARK  118  A    between atoms: _288  and  _289
REMARK  119  A    between atoms: _292  and  _294
REMARK  120  A    between atoms: _294  and  _295
REMARK  121  A    between atoms: _294  and  _297
REMARK  122  A    between atoms: _297  and  _298
REMARK  123  A    between atoms: _300  and  _302
REMARK  124  A    between atoms: _302  and  _303
REMARK  125  A    between atoms: _302  and  _305
REMARK  126  A    between atoms: _305  and  _306
REMARK  127  A    between atoms: _316  and  _318
REMARK  128  A    between atoms: _318  and  _319
REMARK  129  A    between atoms: _321  and  _323
REMARK  130  A    between atoms: _323  and  _324
REMARK  131  A    between atoms: _323  and  _326
REMARK  132  A    between atoms: _326  and  _327
REMARK  133  A    between atoms: _330  and  _332
REMARK  134  A    between atoms: _332  and  _333
REMARK  135  A    between atoms: _332  and  _335
REMARK  136  A    between atoms: _335  and  _336
REMARK  137  A    between atoms: _339  and  _341
REMARK  138  A    between atoms: _341  and  _342
REMARK  139  A    between atoms: _341  and  _344
REMARK  140  A    between atoms: _344  and  _345
REMARK  141  A    between atoms: _348  and  _350
REMARK  142  A    between atoms: _350  and  _351
REMARK  143  A    between atoms: _354  and  _356
REMARK  144  A    between atoms: _356  and  _357
REMARK  145  A    between atoms: _356  and  _359
REMARK  146  A    between atoms: _359  and  _360
REMARK  147  A    between atoms: _365  and  _366
REMARK  148  A    between atoms: _368  and  _370
REMARK  149  A    between atoms: _370  and  _371
REMARK  150  A    between atoms: _370  and  _373
REMARK  151  A    between atoms: _373  and  _374
REMARK  152  A    between atoms: _374  and  _375
REMARK  153  A    between atoms: _378  and  _380
REMARK  154  A    between atoms: _380  and  _381
REMARK  155  A    between atoms: _380  and  _383
REMARK  156  A    between atoms: _383  and  _384
REMARK  157  A    between atoms: _387  and  _389
REMARK  158  A    between atoms: _389  and  _390
REMARK  159  A    between atoms: _393  and  _395
REMARK  160  A    between atoms: _395  and  _396
REMARK  161  A    between atoms: _395  and  _398
REMARK  162  A    between atoms: _398  and  _399
REMARK  163  A    between atoms: _399  and  _400
REMARK  164  A    between atoms: _400  and  _401
REMARK  165  A    between atoms: _410  and  _412
REMARK  166  A    between atoms: _412  and  _413
REMARK  167  A    between atoms: _412  and  _415
REMARK  168  A    between atoms: _415  and  _416
REMARK  169  A    between atoms: _419  and  _421
REMARK  170  A    between atoms: _421  and  _422
REMARK  171  A    between atoms: _421  and  _424
REMARK  172  A    between atoms: _424  and  _425
REMARK  173  A    between atoms: _435  and  _437
REMARK  174  A    between atoms: _437  and  _438
REMARK  175  A    between atoms: _437  and  _440
REMARK  176  A    between atoms: _440  and  _441
REMARK  177  A    between atoms: _446  and  _447
REMARK  178  A    between atoms: _449  and  _451
REMARK  179  A    between atoms: _451  and  _452
REMARK  180  A    between atoms: _451  and  _454
REMARK  181  A    between atoms: _454  and  _455
REMARK  182  A    between atoms: _455  and  _456
REMARK  183  A    between atoms: _456  and  _457
REMARK  184  A    between atoms: _457  and  _458
REMARK  185  A    between atoms: _462  and  _464
REMARK  186  A    between atoms: _464  and  _465
REMARK  187  A    between atoms: _464  and  _467
REMARK  188  A    between atoms: _467  and  _468
REMARK  189  A    between atoms: _471  and  _473
REMARK  190  A    between atoms: _473  and  _474
REMARK  191  A    between atoms: _473  and  _476
REMARK  192  A    between atoms: _479  and  _481
REMARK  193  A    between atoms: _481  and  _482
REMARK  194  A    between atoms: _481  and  _484
REMARK  195  A    between atoms: _484  and  _485
REMARK  196  A    between atoms: _488  and  _490
REMARK  197  A    between atoms: _490  and  _491
REMARK  198  A    between atoms: _490  and  _493
REMARK  199  A    between atoms: _493  and  _494
REMARK  200  A    between atoms: _496  and  _498
REMARK  201  A    between atoms: _498  and  _499
REMARK  202  A    between atoms: _501  and  _503
REMARK  203  A    between atoms: _503  and  _504
REMARK  204  A    between atoms: _503  and  _506
REMARK  205  A    between atoms: _506  and  _507
REMARK  206  A    between atoms: _510  and  _512
REMARK  207  A    between atoms: _512  and  _513
REMARK  208  A    between atoms: _512  and  _515
REMARK  209  A    between atoms: _515  and  _516
REMARK  210  A    between atoms: _519  and  _521
REMARK  211  A    between atoms: _521  and  _522
REMARK  212  A    between atoms: _521  and  _524
REMARK  213  A    between atoms: _524  and  _525
REMARK  214  A    between atoms: _530  and  _532
REMARK  215  A    between atoms: _532  and  _533
REMARK  216  A    between atoms: _532  and  _535
REMARK  217  A    between atoms: _535  and  _536
REMARK  218  A    between atoms: _539  and  _541
REMARK  219  A    between atoms: _541  and  _542
REMARK  220  A    between atoms: _541  and  _544
REMARK  221  A    between atoms: _544  and  _545
REMARK  222  A    between atoms: _545  and  _546
REMARK  223  A    between atoms: _546  and  _547
REMARK  224  A    between atoms: _556  and  _558
REMARK  225  A    between atoms: _558  and  _559
REMARK  226  A    between atoms: _558  and  _561
REMARK  227  A    between atoms: _561  and  _562
REMARK  228  A    between atoms: _562  and  _563
REMARK  229  A    between atoms: _563  and  _564
REMARK  230  A    between atoms: _573  and  _575
REMARK  231  A    between atoms: _575  and  _576
REMARK  232  A    between atoms: _575  and  _578
REMARK  233  A    between atoms: _578  and  _579
REMARK  234  A    between atoms: _581  and  _583
REMARK  235  A    between atoms: _583  and  _584
REMARK  236  A    between atoms: _583  and  _586
REMARK  237  A    between atoms: _586  and  _587
REMARK  238  A    between atoms: _587  and  _588
REMARK  239  A    between atoms: _593  and  _595
REMARK  240  A    between atoms: _595  and  _596
REMARK  241  A    between atoms: _595  and  _598
REMARK  242  A    between atoms: _598  and  _599
REMARK  243  A    between atoms: _601  and  _603
REMARK  244  A    between atoms: _603  and  _604
REMARK  245  A    between atoms: _603  and  _606
REMARK  246  A    between atoms: _606  and  _607
REMARK  247  A    between atoms: _610  and  _612
REMARK  248  A    between atoms: _612  and  _613
REMARK  249  A    between atoms: _612  and  _615
REMARK  250  A    between atoms: _615  and  _616
REMARK  251  A    between atoms: _619  and  _621
REMARK  252  A    between atoms: _621  and  _622
REMARK  253  A    between atoms: _621  and  _624
REMARK  254  A    between atoms: _627  and  _629
REMARK  255  A    between atoms: _629  and  _630
REMARK  256  A    between atoms: _632  and  _634
REMARK  257  A    between atoms: _634  and  _635
REMARK  258  A    between atoms: _638  and  _640
REMARK  259  A    between atoms: _640  and  _641
REMARK  260  A    between atoms: _640  and  _643
REMARK  261  A    between atoms: _646  and  _648
REMARK  262  A    between atoms: _648  and  _649
REMARK  263  A    between atoms: _648  and  _651
REMARK  264  A    between atoms: _651  and  _652
REMARK  265  A    between atoms: _652  and  _653
REMARK  266  A    between atoms: _655  and  _657
REMARK  267  A    between atoms: _657  and  _658
REMARK  268  A    between atoms: _657  and  _660
REMARK  269  A    between atoms: _660  and  _661
REMARK  270  A    between atoms: _661  and  _662
REMARK                            x       y       z     vdW  Elec       q    Type
REMARK                         _______ _______ _______ _____ _____    ______ ____
ROOT
ATOM      1  O   HOH     1      -7.270  -8.192  24.030  0.00  0.00    +0.000 OA
ENDROOT
TORSDOF 0
REMARK  Name = ../refined-set-2016/2g94/2g94_pocket.pdb
REMARK  270 active torsions:
REMARK  status: ('A' for Active; 'I' for Inactive)
REMARK    1  A    between atoms: _1  and  _3
REMARK    2  A    between atoms: _3  and  _4
REMARK    3  A    between atoms: _3  and  _6
REMARK    4  A    between atoms: _6  and  _7
REMARK    5  A    between atoms: _7  and  _8
REMARK    6  A    between atoms: _8  and  _9
REMARK    7  A    between atoms: _9  and  _10
REMARK    8  A    between atoms: _14  and  _16
REMARK    9  A    between atoms: _16  and  _17
REMARK   10  A    between atoms: _16  and  _19
REMARK   11  A    between atoms: _19  and  _20
REMARK   12  A    between atoms: _22  and  _24
REMARK   13  A    between atoms: _24  and  _25
REMARK   14  A    between atoms: _27  and  _29
REMARK   15  A    between atoms: _29  and  _30
REMARK   16  A    between atoms: _29  and  _32
REMARK   17  A    between atoms: _32  and  _33
REMARK   18  A    between atoms: _33  and  _34
REMARK   19  A    between atoms: _39  and  _41
REMARK   20  A    between atoms: _41  and  _42
REMARK   21  A    between atoms: _44  and  _46
REMARK   22  A    between atoms: _46  and  _47
REMARK   23  A    between atoms: _46  and  _49
REMARK   24  A    between atoms: _49  and  _50
REMARK   25  A    between atoms: _55  and  _56
REMARK   26  A    between atoms: _58  and  _60
REMARK   27  A    between atoms: _60  and  _61
REMARK   28  A    between atoms: _60  and  _63
REMARK   29  A    between atoms: _63  and  _64
REMARK   30  A    between atoms: _69  and  _70
REMARK   31  A    between atoms: _72  and  _74
REMARK   32  A    between atoms: _74  and  _75
REMARK   33  A    between atoms: _74  and  _77
REMARK   34  A    between atoms: _77  and  _78
REMARK   35  A    between atoms: _81  and  _83
REMARK   36  A    between atoms: _83  and  _84
REMARK   37  A    between atoms: _83  and  _86
REMARK   38  A    between atoms: _89  and  _91
REMARK   39  A    between atoms: _91  and  _92
REMARK   40  A    between atoms: _91  and  _94
REMARK   41  A    between atoms: _94  and  _95
REMARK   42  A    between atoms: _98  and  _100
REMARK   43  A    between atoms: _100  and  _101
REMARK   44  A    between atoms: _100  and  _103
REMARK   45  A    between atoms: _103  and  _104
REMARK   46  A    between atoms: _107  and  _109
REMARK   47  A    between atoms: _109  and  _110
REMARK   48  A    between atoms: _112  and  _114
REMARK   49  A    between atoms: _114  and  _115
REMARK   50  A    between atoms: _114  and  _117
REMARK   51  A    between atoms: _117  and  _118
REMARK   52  A    between atoms: _120  and  _122
REMARK   53  A    between atoms: _122  and  _123
REMARK   54  A    between atoms: _122  and  _125
REMARK   55  A    between atoms: _125  and  _126
REMARK   56  A    between atoms: _128  and  _130
REMARK   57  A    between atoms: _130  and  _131
REMARK   58  A    between atoms: _130  and  _133
REMARK   59  A    between atoms: _133  and  _134
REMARK   60  A    between atoms: _139  and  _141
REMARK   61  A    between atoms: _141  and  _142
REMARK   62  A    between atoms: _141  and  _144
REMARK   63  A    between atoms: _144  and  _145
REMARK   64  A    between atoms: _150  and  _151
REMARK   65  A    between atoms: _153  and  _155
REMARK   66  A    between atoms: _155  and  _156
REMARK   67  A    between atoms: _155  and  _158
REMARK   68  A    between atoms: _162  and  _163
REMARK   69  A    between atoms: _168  and  _170
REMARK   70  A    between atoms: _170  and  _171
REMARK   71  A    between atoms: _170  and  _173
REMARK   72  A    between atoms: _173  and  _174
REMARK   73  A    between atoms: _179  and  _180
REMARK   74  A    between atoms: _182  and  _184
REMARK   75  A    between atoms: _184  and  _185
REMARK   76  A    between atoms: _184  and  _187
REMARK   77  A    between atoms: _187  and  _188
REMARK   78  A    between atoms: _191  and  _193
REMARK   79  A    between atoms: _193  and  _194
REMARK   80  A    between atoms: _193  and  _196
REMARK   81  A    between atoms: _196  and  _197
REMARK   82  A    between atoms: _197  and  _198
REMARK   83  A    between atoms: _203  and  _205
REMARK   84  A    between atoms: _205  and  _206
REMARK   85  A    between atoms: _208  and  _210
REMARK   86  A    between atoms: _210  and  _211
REMARK   87  A    between atoms: _210  and  _213
REMARK   88  A    between atoms: _213  and  _214
REMARK   89  A    between atoms: _214  and  _215
REMARK   90  A    between atoms: _215  and  _216
REMARK   91  A    between atoms: _216  and  _217
REMARK   92  A    between atoms: _221  and  _223
REMARK   93  A    between atoms: _223  and  _224
REMARK   94  A    between atoms: _223  and  _226
REMARK   95  A    between atoms: _226  and  _227
REMARK   96  A    between atoms: _237  and  _239
REMARK   97  A    between atoms: _239  and  _240
REMARK   98  A    between atoms: _239  and  _242
REMARK   99  A    between atoms: _242  and  _243
REMARK  100  A    between atoms: _246  and  _248
REMARK  101  A    between atoms: _248  and  _249
REMARK  102  A    between atoms: _248  and  _251
REMARK  103  A    between atoms: _251  and  _252
REMARK  104  A    between atoms: _252  and  _253
REMARK  105  A    between atoms: _253  and  _254
REMARK  106  A    between atoms: _254  and  _255
REMARK  107  A    between atoms: _259  and  _261
REMARK  108  A    between atoms: _261  and  _262
REMARK  109  A    between atoms: _261  and  _264
REMARK  110  A    between atoms: _264  and  _265
REMARK  111  A    between atoms: _271  and  _273
REMARK  112  A    between atoms: _273  and  _274
REMARK  113  A    between atoms: _273  and  _276
REMARK  114  A    between atoms: _276  and  _277
REMARK  115  A    between atoms: _283  and  _285
REMARK  116  A    between atoms: _285  and  _286
REMARK  117  A    between atoms: _285  and  _288
REMARK  118  A    between atoms: _288  and  _289
REMARK  119  A    between atoms: _292  and  _294
REMARK  120  A    between atoms: _294  and  _295
REMARK  121  A    between atoms: _294  and  _297
REMARK  122  A    between atoms: _297  and  _298
REMARK  123  A    between atoms: _300  and  _302
REMARK  124  A    between atoms: _302  and  _303
REMARK  125  A    between atoms: _302  and  _305
REMARK  126  A    between atoms: _305  and  _306
REMARK  127  A    between atoms: _316  and  _318
REMARK  128  A    between atoms: _318  and  _319
REMARK  129  A    between atoms: _321  and  _323
REMARK  130  A    between atoms: _323  and  _324
REMARK  131  A    between atoms: _323  and  _326
REMARK  132  A    between atoms: _326  and  _327
REMARK  133  A    between atoms: _330  and  _332
REMARK  134  A    between atoms: _332  and  _333
REMARK  135  A    between atoms: _332  and  _335
REMARK  136  A    between atoms: _335  and  _336
REMARK  137  A    between atoms: _339  and  _341
REMARK  138  A    between atoms: _341  and  _342
REMARK  139  A    between atoms: _341  and  _344
REMARK  140  A    between atoms: _344  and  _345
REMARK  141  A    between atoms: _348  and  _350
REMARK  142  A    between atoms: _350  and  _351
REMARK  143  A    between atoms: _354  and  _356
REMARK  144  A    between atoms: _356  and  _357
REMARK  145  A    between atoms: _356  and  _359
REMARK  146  A    between atoms: _359  and  _360
REMARK  147  A    between atoms: _365  and  _366
REMARK  148  A    between atoms: _368  and  _370
REMARK  149  A    between atoms: _370  and  _371
REMARK  150  A    between atoms: _370  and  _373
REMARK  151  A    between atoms: _373  and  _374
REMARK  152  A    between atoms: _374  and  _375
REMARK  153  A    between atoms: _378  and  _380
REMARK  154  A    between atoms: _380  and  _381
REMARK  155  A    between atoms: _380  and  _383
REMARK  156  A    between atoms: _383  and  _384
REMARK  157  A    between atoms: _387  and  _389
REMARK  158  A    between atoms: _389  and  _390
REMARK  159  A    between atoms: _393  and  _395
REMARK  160  A    between atoms: _395  and  _396
REMARK  161  A    between atoms: _395  and  _398
REMARK  162  A    between atoms: _398  and  _399
REMARK  163  A    between atoms: _399  and  _400
REMARK  164  A    between atoms: _400  and  _401
REMARK  165  A    between atoms: _410  and  _412
REMARK  166  A    between atoms: _412  and  _413
REMARK  167  A    between atoms: _412  and  _415
REMARK  168  A    between atoms: _415  and  _416
REMARK  169  A    between atoms: _419  and  _421
REMARK  170  A    between atoms: _421  and  _422
REMARK  171  A    between atoms: _421  and  _424
REMARK  172  A    between atoms: _424  and  _425
REMARK  173  A    between atoms: _435  and  _437
REMARK  174  A    between atoms: _437  and  _438
REMARK  175  A    between atoms: _437  and  _440
REMARK  176  A    between atoms: _440  and  _441
REMARK  177  A    between atoms: _446  and  _447
REMARK  178  A    between atoms: _449  and  _451
REMARK  179  A    between atoms: _451  and  _452
REMARK  180  A    between atoms: _451  and  _454
REMARK  181  A    between atoms: _454  and  _455
REMARK  182  A    between atoms: _455  and  _456
REMARK  183  A    between atoms: _456  and  _457
REMARK  184  A    between atoms: _457  and  _458
REMARK  185  A    between atoms: _462  and  _464
REMARK  186  A    between atoms: _464  and  _465
REMARK  187  A    between atoms: _464  and  _467
REMARK  188  A    between atoms: _467  and  _468
REMARK  189  A    between atoms: _471  and  _473
REMARK  190  A    between atoms: _473  and  _474
REMARK  191  A    between atoms: _473  and  _476
REMARK  192  A    between atoms: _479  and  _481
REMARK  193  A    between atoms: _481  and  _482
REMARK  194  A    between atoms: _481  and  _484
REMARK  195  A    between atoms: _484  and  _485
REMARK  196  A    between atoms: _488  and  _490
REMARK  197  A    between atoms: _490  and  _491
REMARK  198  A    between atoms: _490  and  _493
REMARK  199  A    between atoms: _493  and  _494
REMARK  200  A    between atoms: _496  and  _498
REMARK  201  A    between atoms: _498  and  _499
REMARK  202  A    between atoms: _501  and  _503
REMARK  203  A    between atoms: _503  and  _504
REMARK  204  A    between atoms: _503  and  _506
REMARK  205  A    between atoms: _506  and  _507
REMARK  206  A    between atoms: _510  and  _512
REMARK  207  A    between atoms: _512  and  _513
REMARK  208  A    between atoms: _512  and  _515
REMARK  209  A    between atoms: _515  and  _516
REMARK  210  A    between atoms: _519  and  _521
REMARK  211  A    between atoms: _521  and  _522
REMARK  212  A    between atoms: _521  and  _524
REMARK  213  A    between atoms: _524  and  _525
REMARK  214  A    between atoms: _530  and  _532
REMARK  215  A    between atoms: _532  and  _533
REMARK  216  A    between atoms: _532  and  _535
REMARK  217  A    between atoms: _535  and  _536
REMARK  218  A    between atoms: _539  and  _541
REMARK  219  A    between atoms: _541  and  _542
REMARK  220  A    between atoms: _541  and  _544
REMARK  221  A    between atoms: _544  and  _545
REMARK  222  A    between atoms: _545  and  _546
REMARK  223  A    between atoms: _546  and  _547
REMARK  224  A    between atoms: _556  and  _558
REMARK  225  A    between atoms: _558  and  _559
REMARK  226  A    between atoms: _558  and  _561
REMARK  227  A    between atoms: _561  and  _562
REMARK  228  A    between atoms: _562  and  _563
REMARK  229  A    between atoms: _563  and  _564
REMARK  230  A    between atoms: _573  and  _575
REMARK  231  A    between atoms: _575  and  _576
REMARK  232  A    between atoms: _575  and  _578
REMARK  233  A    between atoms: _578  and  _579
REMARK  234  A    between atoms: _581  and  _583
REMARK  235  A    between atoms: _583  and  _584
REMARK  236  A    between atoms: _583  and  _586
REMARK  237  A    between atoms: _586  and  _587
REMARK  238  A    between atoms: _587  and  _588
REMARK  239  A    between atoms: _593  and  _595
REMARK  240  A    between atoms: _595  and  _596
REMARK  241  A    between atoms: _595  and  _598
REMARK  242  A    between atoms: _598  and  _599
REMARK  243  A    between atoms: _601  and  _603
REMARK  244  A    between atoms: _603  and  _604
REMARK  245  A    between atoms: _603  and  _606
REMARK  246  A    between atoms: _606  and  _607
REMARK  247  A    between atoms: _610  and  _612
REMARK  248  A    between atoms: _612  and  _613
REMARK  249  A    between atoms: _612  and  _615
REMARK  250  A    between atoms: _615  and  _616
REMARK  251  A    between atoms: _619  and  _621
REMARK  252  A    between atoms: _621  and  _622
REMARK  253  A    between atoms: _621  and  _624
REMARK  254  A    between atoms: _627  and  _629
REMARK  255  A    between atoms: _629  and  _630
REMARK  256  A    between atoms: _632  and  _634
REMARK  257  A    between atoms: _634  and  _635
REMARK  258  A    between atoms: _638  and  _640
REMARK  259  A    between atoms: _640  and  _641
REMARK  260  A    between atoms: _640  and  _643
REMARK  261  A    between atoms: _646  and  _648
REMARK  262  A    between atoms: _648  and  _649
REMARK  263  A    between atoms: _648  and  _651
REMARK  264  A    between atoms: _651  and  _652
REMARK  265  A    between atoms: _652  and  _653
REMARK  266  A    between atoms: _655  and  _657
REMARK  267  A    between atoms: _657  and  _658
REMARK  268  A    between atoms: _657  and  _660
REMARK  269  A    between atoms: _660  and  _661
REMARK  270  A    between atoms: _661  and  _662
REMARK                            x       y       z     vdW  Elec       q    Type
REMARK                         _______ _______ _______ _____ _____    ______ ____
ROOT
ATOM      1  O   HOH     1     -10.067   1.075  29.727  0.00  0.00    +0.000 OA
ENDROOT
TORSDOF 0
REMARK  Name = ../refined-set-2016/2g94/2g94_pocket.pdb
REMARK  270 active torsions:
REMARK  status: ('A' for Active; 'I' for Inactive)
REMARK    1  A    between atoms: _1  and  _3
REMARK    2  A    between atoms: _3  and  _4
REMARK    3  A    between atoms: _3  and  _6
REMARK    4  A    between atoms: _6  and  _7
REMARK    5  A    between atoms: _7  and  _8
REMARK    6  A    between atoms: _8  and  _9
REMARK    7  A    between atoms: _9  and  _10
REMARK    8  A    between atoms: _14  and  _16
REMARK    9  A    between atoms: _16  and  _17
REMARK   10  A    between atoms: _16  and  _19
REMARK   11  A    between atoms: _19  and  _20
REMARK   12  A    between atoms: _22  and  _24
REMARK   13  A    between atoms: _24  and  _25
REMARK   14  A    between atoms: _27  and  _29
REMARK   15  A    between atoms: _29  and  _30
REMARK   16  A    between atoms: _29  and  _32
REMARK   17  A    between atoms: _32  and  _33
REMARK   18  A    between atoms: _33  and  _34
REMARK   19  A    between atoms: _39  and  _41
REMARK   20  A    between atoms: _41  and  _42
REMARK   21  A    between atoms: _44  and  _46
REMARK   22  A    between atoms: _46  and  _47
REMARK   23  A    between atoms: _46  and  _49
REMARK   24  A    between atoms: _49  and  _50
REMARK   25  A    between atoms: _55  and  _56
REMARK   26  A    between atoms: _58  and  _60
REMARK   27  A    between atoms: _60  and  _61
REMARK   28  A    between atoms: _60  and  _63
REMARK   29  A    between atoms: _63  and  _64
REMARK   30  A    between atoms: _69  and  _70
REMARK   31  A    between atoms: _72  and  _74
REMARK   32  A    between atoms: _74  and  _75
REMARK   33  A    between atoms: _74  and  _77
REMARK   34  A    between atoms: _77  and  _78
REMARK   35  A    between atoms: _81  and  _83
REMARK   36  A    between atoms: _83  and  _84
REMARK   37  A    between atoms: _83  and  _86
REMARK   38  A    between atoms: _89  and  _91
REMARK   39  A    between atoms: _91  and  _92
REMARK   40  A    between atoms: _91  and  _94
REMARK   41  A    between atoms: _94  and  _95
REMARK   42  A    between atoms: _98  and  _100
REMARK   43  A    between atoms: _100  and  _101
REMARK   44  A    between atoms: _100  and  _103
REMARK   45  A    between atoms: _103  and  _104
REMARK   46  A    between atoms: _107  and  _109
REMARK   47  A    between atoms: _109  and  _110
REMARK   48  A    between atoms: _112  and  _114
REMARK   49  A    between atoms: _114  and  _115
REMARK   50  A    between atoms: _114  and  _117
REMARK   51  A    between atoms: _117  and  _118
REMARK   52  A    between atoms: _120  and  _122
REMARK   53  A    between atoms: _122  and  _123
REMARK   54  A    between atoms: _122  and  _125
REMARK   55  A    between atoms: _125  and  _126
REMARK   56  A    between atoms: _128  and  _130
REMARK   57  A    between atoms: _130  and  _131
REMARK   58  A    between atoms: _130  and  _133
REMARK   59  A    between atoms: _133  and  _134
REMARK   60  A    between atoms: _139  and  _141
REMARK   61  A    between atoms: _141  and  _142
REMARK   62  A    between atoms: _141  and  _144
REMARK   63  A    between atoms: _144  and  _145
REMARK   64  A    between atoms: _150  and  _151
REMARK   65  A    between atoms: _153  and  _155
REMARK   66  A    between atoms: _155  and  _156
REMARK   67  A    between atoms: _155  and  _158
REMARK   68  A    between atoms: _162  and  _163
REMARK   69  A    between atoms: _168  and  _170
REMARK   70  A    between atoms: _170  and  _171
REMARK   71  A    between atoms: _170  and  _173
REMARK   72  A    between atoms: _173  and  _174
REMARK   73  A    between atoms: _179  and  _180
REMARK   74  A    between atoms: _182  and  _184
REMARK   75  A    between atoms: _184  and  _185
REMARK   76  A    between atoms: _184  and  _187
REMARK   77  A    between atoms: _187  and  _188
REMARK   78  A    between atoms: _191  and  _193
REMARK   79  A    between atoms: _193  and  _194
REMARK   80  A    between atoms: _193  and  _196
REMARK   81  A    between atoms: _196  and  _197
REMARK   82  A    between atoms: _197  and  _198
REMARK   83  A    between atoms: _203  and  _205
REMARK   84  A    between atoms: _205  and  _206
REMARK   85  A    between atoms: _208  and  _210
REMARK   86  A    between atoms: _210  and  _211
REMARK   87  A    between atoms: _210  and  _213
REMARK   88  A    between atoms: _213  and  _214
REMARK   89  A    between atoms: _214  and  _215
REMARK   90  A    between atoms: _215  and  _216
REMARK   91  A    between atoms: _216  and  _217
REMARK   92  A    between atoms: _221  and  _223
REMARK   93  A    between atoms: _223  and  _224
REMARK   94  A    between atoms: _223  and  _226
REMARK   95  A    between atoms: _226  and  _227
REMARK   96  A    between atoms: _237  and  _239
REMARK   97  A    between atoms: _239  and  _240
REMARK   98  A    between atoms: _239  and  _242
REMARK   99  A    between atoms: _242  and  _243
REMARK  100  A    between atoms: _246  and  _248
REMARK  101  A    between atoms: _248  and  _249
REMARK  102  A    between atoms: _248  and  _251
REMARK  103  A    between atoms: _251  and  _252
REMARK  104  A    between atoms: _252  and  _253
REMARK  105  A    between atoms: _253  and  _254
REMARK  106  A    between atoms: _254  and  _255
REMARK  107  A    between atoms: _259  and  _261
REMARK  108  A    between atoms: _261  and  _262
REMARK  109  A    between atoms: _261  and  _264
REMARK  110  A    between atoms: _264  and  _265
REMARK  111  A    between atoms: _271  and  _273
REMARK  112  A    between atoms: _273  and  _274
REMARK  113  A    between atoms: _273  and  _276
REMARK  114  A    between atoms: _276  and  _277
REMARK  115  A    between atoms: _283  and  _285
REMARK  116  A    between atoms: _285  and  _286
REMARK  117  A    between atoms: _285  and  _288
REMARK  118  A    between atoms: _288  and  _289
REMARK  119  A    between atoms: _292  and  _294
REMARK  120  A    between atoms: _294  and  _295
REMARK  121  A    between atoms: _294  and  _297
REMARK  122  A    between atoms: _297  and  _298
REMARK  123  A    between atoms: _300  and  _302
REMARK  124  A    between atoms: _302  and  _303
REMARK  125  A    between atoms: _302  and  _305
REMARK  126  A    between atoms: _305  and  _306
REMARK  127  A    between atoms: _316  and  _318
REMARK  128  A    between atoms: _318  and  _319
REMARK  129  A    between atoms: _321  and  _323
REMARK  130  A    between atoms: _323  and  _324
REMARK  131  A    between atoms: _323  and  _326
REMARK  132  A    between atoms: _326  and  _327
REMARK  133  A    between atoms: _330  and  _332
REMARK  134  A    between atoms: _332  and  _333
REMARK  135  A    between atoms: _332  and  _335
REMARK  136  A    between atoms: _335  and  _336
REMARK  137  A    between atoms: _339  and  _341
REMARK  138  A    between atoms: _341  and  _342
REMARK  139  A    between atoms: _341  and  _344
REMARK  140  A    between atoms: _344  and  _345
REMARK  141  A    between atoms: _348  and  _350
REMARK  142  A    between atoms: _350  and  _351
REMARK  143  A    between atoms: _354  and  _356
REMARK  144  A    between atoms: _356  and  _357
REMARK  145  A    between atoms: _356  and  _359
REMARK  146  A    between atoms: _359  and  _360
REMARK  147  A    between atoms: _365  and  _366
REMARK  148  A    between atoms: _368  and  _370
REMARK  149  A    between atoms: _370  and  _371
REMARK  150  A    between atoms: _370  and  _373
REMARK  151  A    between atoms: _373  and  _374
REMARK  152  A    between atoms: _374  and  _375
REMARK  153  A    between atoms: _378  and  _380
REMARK  154  A    between atoms: _380  and  _381
REMARK  155  A    between atoms: _380  and  _383
REMARK  156  A    between atoms: _383  and  _384
REMARK  157  A    between atoms: _387  and  _389
REMARK  158  A    between atoms: _389  and  _390
REMARK  159  A    between atoms: _393  and  _395
REMARK  160  A    between atoms: _395  and  _396
REMARK  161  A    between atoms: _395  and  _398
REMARK  162  A    between atoms: _398  and  _399
REMARK  163  A    between atoms: _399  and  _400
REMARK  164  A    between atoms: _400  and  _401
REMARK  165  A    between atoms: _410  and  _412
REMARK  166  A    between atoms: _412  and  _413
REMARK  167  A    between atoms: _412  and  _415
REMARK  168  A    between atoms: _415  and  _416
REMARK  169  A    between atoms: _419  and  _421
REMARK  170  A    between atoms: _421  and  _422
REMARK  171  A    between atoms: _421  and  _424
REMARK  172  A    between atoms: _424  and  _425
REMARK  173  A    between atoms: _435  and  _437
REMARK  174  A    between atoms: _437  and  _438
REMARK  175  A    between atoms: _437  and  _440
REMARK  176  A    between atoms: _440  and  _441
REMARK  177  A    between atoms: _446  and  _447
REMARK  178  A    between atoms: _449  and  _451
REMARK  179  A    between atoms: _451  and  _452
REMARK  180  A    between atoms: _451  and  _454
REMARK  181  A    between atoms: _454  and  _455
REMARK  182  A    between atoms: _455  and  _456
REMARK  183  A    between atoms: _456  and  _457
REMARK  184  A    between atoms: _457  and  _458
REMARK  185  A    between atoms: _462  and  _464
REMARK  186  A    between atoms: _464  and  _465
REMARK  187  A    between atoms: _464  and  _467
REMARK  188  A    between atoms: _467  and  _468
REMARK  189  A    between atoms: _471  and  _473
REMARK  190  A    between atoms: _473  and  _474
REMARK  191  A    between atoms: _473  and  _476
REMARK  192  A    between atoms: _479  and  _481
REMARK  193  A    between atoms: _481  and  _482
REMARK  194  A    between atoms: _481  and  _484
REMARK  195  A    between atoms: _484  and  _485
REMARK  196  A    between atoms: _488  and  _490
REMARK  197  A    between atoms: _490  and  _491
REMARK  198  A    between atoms: _490  and  _493
REMARK  199  A    between atoms: _493  and  _494
REMARK  200  A    between atoms: _496  and  _498
REMARK  201  A    between atoms: _498  and  _499
REMARK  202  A    between atoms: _501  and  _503
REMARK  203  A    between atoms: _503  and  _504
REMARK  204  A    between atoms: _503  and  _506
REMARK  205  A    between atoms: _506  and  _507
REMARK  206  A    between atoms: _510  and  _512
REMARK  207  A    between atoms: _512  and  _513
REMARK  208  A    between atoms: _512  and  _515
REMARK  209  A    between atoms: _515  and  _516
REMARK  210  A    between atoms: _519  and  _521
REMARK  211  A    between atoms: _521  and  _522
REMARK  212  A    between atoms: _521  and  _524
REMARK  213  A    between atoms: _524  and  _525
REMARK  214  A    between atoms: _530  and  _532
REMARK  215  A    between atoms: _532  and  _533
REMARK  216  A    between atoms: _532  and  _535
REMARK  217  A    between atoms: _535  and  _536
REMARK  218  A    between atoms: _539  and  _541
REMARK  219  A    between atoms: _541  and  _542
REMARK  220  A    between atoms: _541  and  _544
REMARK  221  A    between atoms: _544  and  _545
REMARK  222  A    between atoms: _545  and  _546
REMARK  223  A    between atoms: _546  and  _547
REMARK  224  A    between atoms: _556  and  _558
REMARK  225  A    between atoms: _558  and  _559
REMARK  226  A    between atoms: _558  and  _561
REMARK  227  A    between atoms: _561  and  _562
REMARK  228  A    between atoms: _562  and  _563
REMARK  229  A    between atoms: _563  and  _564
REMARK  230  A    between atoms: _573  and  _575
REMARK  231  A    between atoms: _575  and  _576
REMARK  232  A    between atoms: _575  and  _578
REMARK  233  A    between atoms: _578  and  _579
REMARK  234  A    between atoms: _581  and  _583
REMARK  235  A    between atoms: _583  and  _584
REMARK  236  A    between atoms: _583  and  _586
REMARK  237  A    between atoms: _586  and  _587
REMARK  238  A    between atoms: _587  and  _588
REMARK  239  A    between atoms: _593  and  _595
REMARK  240  A    between atoms: _595  and  _596
REMARK  241  A    between atoms: _595  and  _598
REMARK  242  A    between atoms: _598  and  _599
REMARK  243  A    between atoms: _601  and  _603
REMARK  244  A    between atoms: _603  and  _604
REMARK  245  A    between atoms: _603  and  _606
REMARK  246  A    between atoms: _606  and  _607
REMARK  247  A    between atoms: _610  and  _612
REMARK  248  A    between atoms: _612  and  _613
REMARK  249  A    between atoms: _612  and  _615
REMARK  250  A    between atoms: _615  and  _616
REMARK  251  A    between atoms: _619  and  _621
REMARK  252  A    between atoms: _621  and  _622
REMARK  253  A    between atoms: _621  and  _624
REMARK  254  A    between atoms: _627  and  _629
REMARK  255  A    between atoms: _629  and  _630
REMARK  256  A    between atoms: _632  and  _634
REMARK  257  A    between atoms: _634  and  _635
REMARK  258  A    between atoms: _638  and  _640
REMARK  259  A    between atoms: _640  and  _641
REMARK  260  A    between atoms: _640  and  _643
REMARK  261  A    between atoms: _646  and  _648
REMARK  262  A    between atoms: _648  and  _649
REMARK  263  A    between atoms: _648  and  _651
REMARK  264  A    between atoms: _651  and  _652
REMARK  265  A    between atoms: _652  and  _653
REMARK  266  A    between atoms: _655  and  _657
REMARK  267  A    between atoms: _657  and  _658
REMARK  268  A    between atoms: _657  and  _660
REMARK  269  A    between atoms: _660  and  _661
REMARK  270  A    between atoms: _661  and  _662
REMARK                            x       y       z     vdW  Elec       q    Type
REMARK                         _______ _______ _______ _____ _____    ______ ____
ROOT
ATOM      1  O   HOH     1      -3.015   0.055  29.607  0.00  0.00    +0.000 OA
ENDROOT
TORSDOF 0
REMARK  Name = ../refined-set-2016/2g94/2g94_pocket.pdb
REMARK  270 active torsions:
REMARK  status: ('A' for Active; 'I' for Inactive)
REMARK    1  A    between atoms: _1  and  _3
REMARK    2  A    between atoms: _3  and  _4
REMARK    3  A    between atoms: _3  and  _6
REMARK    4  A    between atoms: _6  and  _7
REMARK    5  A    between atoms: _7  and  _8
REMARK    6  A    between atoms: _8  and  _9
REMARK    7  A    between atoms: _9  and  _10
REMARK    8  A    between atoms: _14  and  _16
REMARK    9  A    between atoms: _16  and  _17
REMARK   10  A    between atoms: _16  and  _19
REMARK   11  A    between atoms: _19  and  _20
REMARK   12  A    between atoms: _22  and  _24
REMARK   13  A    between atoms: _24  and  _25
REMARK   14  A    between atoms: _27  and  _29
REMARK   15  A    between atoms: _29  and  _30
REMARK   16  A    between atoms: _29  and  _32
REMARK   17  A    between atoms: _32  and  _33
REMARK   18  A    between atoms: _33  and  _34
REMARK   19  A    between atoms: _39  and  _41
REMARK   20  A    between atoms: _41  and  _42
REMARK   21  A    between atoms: _44  and  _46
REMARK   22  A    between atoms: _46  and  _47
REMARK   23  A    between atoms: _46  and  _49
REMARK   24  A    between atoms: _49  and  _50
REMARK   25  A    between atoms: _55  and  _56
REMARK   26  A    between atoms: _58  and  _60
REMARK   27  A    between atoms: _60  and  _61
REMARK   28  A    between atoms: _60  and  _63
REMARK   29  A    between atoms: _63  and  _64
REMARK   30  A    between atoms: _69  and  _70
REMARK   31  A    between atoms: _72  and  _74
REMARK   32  A    between atoms: _74  and  _75
REMARK   33  A    between atoms: _74  and  _77
REMARK   34  A    between atoms: _77  and  _78
REMARK   35  A    between atoms: _81  and  _83
REMARK   36  A    between atoms: _83  and  _84
REMARK   37  A    between atoms: _83  and  _86
REMARK   38  A    between atoms: _89  and  _91
REMARK   39  A    between atoms: _91  and  _92
REMARK   40  A    between atoms: _91  and  _94
REMARK   41  A    between atoms: _94  and  _95
REMARK   42  A    between atoms: _98  and  _100
REMARK   43  A    between atoms: _100  and  _101
REMARK   44  A    between atoms: _100  and  _103
REMARK   45  A    between atoms: _103  and  _104
REMARK   46  A    between atoms: _107  and  _109
REMARK   47  A    between atoms: _109  and  _110
REMARK   48  A    between atoms: _112  and  _114
REMARK   49  A    between atoms: _114  and  _115
REMARK   50  A    between atoms: _114  and  _117
REMARK   51  A    between atoms: _117  and  _118
REMARK   52  A    between atoms: _120  and  _122
REMARK   53  A    between atoms: _122  and  _123
REMARK   54  A    between atoms: _122  and  _125
REMARK   55  A    between atoms: _125  and  _126
REMARK   56  A    between atoms: _128  and  _130
REMARK   57  A    between atoms: _130  and  _131
REMARK   58  A    between atoms: _130  and  _133
REMARK   59  A    between atoms: _133  and  _134
REMARK   60  A    between atoms: _139  and  _141
REMARK   61  A    between atoms: _141  and  _142
REMARK   62  A    between atoms: _141  and  _144
REMARK   63  A    between atoms: _144  and  _145
REMARK   64  A    between atoms: _150  and  _151
REMARK   65  A    between atoms: _153  and  _155
REMARK   66  A    between atoms: _155  and  _156
REMARK   67  A    between atoms: _155  and  _158
REMARK   68  A    between atoms: _162  and  _163
REMARK   69  A    between atoms: _168  and  _170
REMARK   70  A    between atoms: _170  and  _171
REMARK   71  A    between atoms: _170  and  _173
REMARK   72  A    between atoms: _173  and  _174
REMARK   73  A    between atoms: _179  and  _180
REMARK   74  A    between atoms: _182  and  _184
REMARK   75  A    between atoms: _184  and  _185
REMARK   76  A    between atoms: _184  and  _187
REMARK   77  A    between atoms: _187  and  _188
REMARK   78  A    between atoms: _191  and  _193
REMARK   79  A    between atoms: _193  and  _194
REMARK   80  A    between atoms: _193  and  _196
REMARK   81  A    between atoms: _196  and  _197
REMARK   82  A    between atoms: _197  and  _198
REMARK   83  A    between atoms: _203  and  _205
REMARK   84  A    between atoms: _205  and  _206
REMARK   85  A    between atoms: _208  and  _210
REMARK   86  A    between atoms: _210  and  _211
REMARK   87  A    between atoms: _210  and  _213
REMARK   88  A    between atoms: _213  and  _214
REMARK   89  A    between atoms: _214  and  _215
REMARK   90  A    between atoms: _215  and  _216
REMARK   91  A    between atoms: _216  and  _217
REMARK   92  A    between atoms: _221  and  _223
REMARK   93  A    between atoms: _223  and  _224
REMARK   94  A    between atoms: _223  and  _226
REMARK   95  A    between atoms: _226  and  _227
REMARK   96  A    between atoms: _237  and  _239
REMARK   97  A    between atoms: _239  and  _240
REMARK   98  A    between atoms: _239  and  _242
REMARK   99  A    between atoms: _242  and  _243
REMARK  100  A    between atoms: _246  and  _248
REMARK  101  A    between atoms: _248  and  _249
REMARK  102  A    between atoms: _248  and  _251
REMARK  103  A    between atoms: _251  and  _252
REMARK  104  A    between atoms: _252  and  _253
REMARK  105  A    between atoms: _253  and  _254
REMARK  106  A    between atoms: _254  and  _255
REMARK  107  A    between atoms: _259  and  _261
REMARK  108  A    between atoms: _261  and  _262
REMARK  109  A    between atoms: _261  and  _264
REMARK  110  A    between atoms: _264  and  _265
REMARK  111  A    between atoms: _271  and  _273
REMARK  112  A    between atoms: _273  and  _274
REMARK  113  A    between atoms: _273  and  _276
REMARK  114  A    between atoms: _276  and  _277
REMARK  115  A    between atoms: _283  and  _285
REMARK  116  A    between atoms: _285  and  _286
REMARK  117  A    between atoms: _285  and  _288
REMARK  118  A    between atoms: _288  and  _289
REMARK  119  A    between atoms: _292  and  _294
REMARK  120  A    between atoms: _294  and  _295
REMARK  121  A    between atoms: _294  and  _297
REMARK  122  A    between atoms: _297  and  _298
REMARK  123  A    between atoms: _300  and  _302
REMARK  124  A    between atoms: _302  and  _303
REMARK  125  A    between atoms: _302  and  _305
REMARK  126  A    between atoms: _305  and  _306
REMARK  127  A    between atoms: _316  and  _318
REMARK  128  A    between atoms: _318  and  _319
REMARK  129  A    between atoms: _321  and  _323
REMARK  130  A    between atoms: _323  and  _324
REMARK  131  A    between atoms: _323  and  _326
REMARK  132  A    between atoms: _326  and  _327
REMARK  133  A    between atoms: _330  and  _332
REMARK  134  A    between atoms: _332  and  _333
REMARK  135  A    between atoms: _332  and  _335
REMARK  136  A    between atoms: _335  and  _336
REMARK  137  A    between atoms: _339  and  _341
REMARK  138  A    between atoms: _341  and  _342
REMARK  139  A    between atoms: _341  and  _344
REMARK  140  A    between atoms: _344  and  _345
REMARK  141  A    between atoms: _348  and  _350
REMARK  142  A    between atoms: _350  and  _351
REMARK  143  A    between atoms: _354  and  _356
REMARK  144  A    between atoms: _356  and  _357
REMARK  145  A    between atoms: _356  and  _359
REMARK  146  A    between atoms: _359  and  _360
REMARK  147  A    between atoms: _365  and  _366
REMARK  148  A    between atoms: _368  and  _370
REMARK  149  A    between atoms: _370  and  _371
REMARK  150  A    between atoms: _370  and  _373
REMARK  151  A    between atoms: _373  and  _374
REMARK  152  A    between atoms: _374  and  _375
REMARK  153  A    between atoms: _378  and  _380
REMARK  154  A    between atoms: _380  and  _381
REMARK  155  A    between atoms: _380  and  _383
REMARK  156  A    between atoms: _383  and  _384
REMARK  157  A    between atoms: _387  and  _389
REMARK  158  A    between atoms: _389  and  _390
REMARK  159  A    between atoms: _393  and  _395
REMARK  160  A    between atoms: _395  and  _396
REMARK  161  A    between atoms: _395  and  _398
REMARK  162  A    between atoms: _398  and  _399
REMARK  163  A    between atoms: _399  and  _400
REMARK  164  A    between atoms: _400  and  _401
REMARK  165  A    between atoms: _410  and  _412
REMARK  166  A    between atoms: _412  and  _413
REMARK  167  A    between atoms: _412  and  _415
REMARK  168  A    between atoms: _415  and  _416
REMARK  169  A    between atoms: _419  and  _421
REMARK  170  A    between atoms: _421  and  _422
REMARK  171  A    between atoms: _421  and  _424
REMARK  172  A    between atoms: _424  and  _425
REMARK  173  A    between atoms: _435  and  _437
REMARK  174  A    between atoms: _437  and  _438
REMARK  175  A    between atoms: _437  and  _440
REMARK  176  A    between atoms: _440  and  _441
REMARK  177  A    between atoms: _446  and  _447
REMARK  178  A    between atoms: _449  and  _451
REMARK  179  A    between atoms: _451  and  _452
REMARK  180  A    between atoms: _451  and  _454
REMARK  181  A    between atoms: _454  and  _455
REMARK  182  A    between atoms: _455  and  _456
REMARK  183  A    between atoms: _456  and  _457
REMARK  184  A    between atoms: _457  and  _458
REMARK  185  A    between atoms: _462  and  _464
REMARK  186  A    between atoms: _464  and  _465
REMARK  187  A    between atoms: _464  and  _467
REMARK  188  A    between atoms: _467  and  _468
REMARK  189  A    between atoms: _471  and  _473
REMARK  190  A    between atoms: _473  and  _474
REMARK  191  A    between atoms: _473  and  _476
REMARK  192  A    between atoms: _479  and  _481
REMARK  193  A    between atoms: _481  and  _482
REMARK  194  A    between atoms: _481  and  _484
REMARK  195  A    between atoms: _484  and  _485
REMARK  196  A    between atoms: _488  and  _490
REMARK  197  A    between atoms: _490  and  _491
REMARK  198  A    between atoms: _490  and  _493
REMARK  199  A    between atoms: _493  and  _494
REMARK  200  A    between atoms: _496  and  _498
REMARK  201  A    between atoms: _498  and  _499
REMARK  202  A    between atoms: _501  and  _503
REMARK  203  A    between atoms: _503  and  _504
REMARK  204  A    between atoms: _503  and  _506
REMARK  205  A    between atoms: _506  and  _507
REMARK  206  A    between atoms: _510  and  _512
REMARK  207  A    between atoms: _512  and  _513
REMARK  208  A    between atoms: _512  and  _515
REMARK  209  A    between atoms: _515  and  _516
REMARK  210  A    between atoms: _519  and  _521
REMARK  211  A    between atoms: _521  and  _522
REMARK  212  A    between atoms: _521  and  _524
REMARK  213  A    between atoms: _524  and  _525
REMARK  214  A    between atoms: _530  and  _532
REMARK  215  A    between atoms: _532  and  _533
REMARK  216  A    between atoms: _532  and  _535
REMARK  217  A    between atoms: _535  and  _536
REMARK  218  A    between atoms: _539  and  _541
REMARK  219  A    between atoms: _541  and  _542
REMARK  220  A    between atoms: _541  and  _544
REMARK  221  A    between atoms: _544  and  _545
REMARK  222  A    between atoms: _545  and  _546
REMARK  223  A    between atoms: _546  and  _547
REMARK  224  A    between atoms: _556  and  _558
REMARK  225  A    between atoms: _558  and  _559
REMARK  226  A    between atoms: _558  and  _561
REMARK  227  A    between atoms: _561  and  _562
REMARK  228  A    between atoms: _562  and  _563
REMARK  229  A    between atoms: _563  and  _564
REMARK  230  A    between atoms: _573  and  _575
REMARK  231  A    between atoms: _575  and  _576
REMARK  232  A    between atoms: _575  and  _578
REMARK  233  A    between atoms: _578  and  _579
REMARK  234  A    between atoms: _581  and  _583
REMARK  235  A    between atoms: _583  and  _584
REMARK  236  A    between atoms: _583  and  _586
REMARK  237  A    between atoms: _586  and  _587
REMARK  238  A    between atoms: _587  and  _588
REMARK  239  A    between atoms: _593  and  _595
REMARK  240  A    between atoms: _595  and  _596
REMARK  241  A    between atoms: _595  and  _598
REMARK  242  A    between atoms: _598  and  _599
REMARK  243  A    between atoms: _601  and  _603
REMARK  244  A    between atoms: _603  and  _604
REMARK  245  A    between atoms: _603  and  _606
REMARK  246  A    between atoms: _606  and  _607
REMARK  247  A    between atoms: _610  and  _612
REMARK  248  A    between atoms: _612  and  _613
REMARK  249  A    between atoms: _612  and  _615
REMARK  250  A    between atoms: _615  and  _616
REMARK  251  A    between atoms: _619  and  _621
REMARK  252  A    between atoms: _621  and  _622
REMARK  253  A    between atoms: _621  and  _624
REMARK  254  A    between atoms: _627  and  _629
REMARK  255  A    between atoms: _629  and  _630
REMARK  256  A    between atoms: _632  and  _634
REMARK  257  A    between atoms: _634  and  _635
REMARK  258  A    between atoms: _638  and  _640
REMARK  259  A    between atoms: _640  and  _641
REMARK  260  A    between atoms: _640  and  _643
REMARK  261  A    between atoms: _646  and  _648
REMARK  262  A    between atoms: _648  and  _649
REMARK  263  A    between atoms: _648  and  _651
REMARK  264  A    between atoms: _651  and  _652
REMARK  265  A    between atoms: _652  and  _653
REMARK  266  A    between atoms: _655  and  _657
REMARK  267  A    between atoms: _657  and  _658
REMARK  268  A    between atoms: _657  and  _660
REMARK  269  A    between atoms: _660  and  _661
REMARK  270  A    between atoms: _661  and  _662
REMARK                            x       y       z     vdW  Elec       q    Type
REMARK                         _______ _______ _______ _____ _____    ______ ____
ROOT
ATOM      1  O   HOH     1      -9.732   3.181  30.698  0.00  0.00    +0.000 OA
ENDROOT
TORSDOF 0
REMARK  Name = ../refined-set-2016/2g94/2g94_pocket.pdb
REMARK  270 active torsions:
REMARK  status: ('A' for Active; 'I' for Inactive)
REMARK    1  A    between atoms: _1  and  _3
REMARK    2  A    between atoms: _3  and  _4
REMARK    3  A    between atoms: _3  and  _6
REMARK    4  A    between atoms: _6  and  _7
REMARK    5  A    between atoms: _7  and  _8
REMARK    6  A    between atoms: _8  and  _9
REMARK    7  A    between atoms: _9  and  _10
REMARK    8  A    between atoms: _14  and  _16
REMARK    9  A    between atoms: _16  and  _17
REMARK   10  A    between atoms: _16  and  _19
REMARK   11  A    between atoms: _19  and  _20
REMARK   12  A    between atoms: _22  and  _24
REMARK   13  A    between atoms: _24  and  _25
REMARK   14  A    between atoms: _27  and  _29
REMARK   15  A    between atoms: _29  and  _30
REMARK   16  A    between atoms: _29  and  _32
REMARK   17  A    between atoms: _32  and  _33
REMARK   18  A    between atoms: _33  and  _34
REMARK   19  A    between atoms: _39  and  _41
REMARK   20  A    between atoms: _41  and  _42
REMARK   21  A    between atoms: _44  and  _46
REMARK   22  A    between atoms: _46  and  _47
REMARK   23  A    between atoms: _46  and  _49
REMARK   24  A    between atoms: _49  and  _50
REMARK   25  A    between atoms: _55  and  _56
REMARK   26  A    between atoms: _58  and  _60
REMARK   27  A    between atoms: _60  and  _61
REMARK   28  A    between atoms: _60  and  _63
REMARK   29  A    between atoms: _63  and  _64
REMARK   30  A    between atoms: _69  and  _70
REMARK   31  A    between atoms: _72  and  _74
REMARK   32  A    between atoms: _74  and  _75
REMARK   33  A    between atoms: _74  and  _77
REMARK   34  A    between atoms: _77  and  _78
REMARK   35  A    between atoms: _81  and  _83
REMARK   36  A    between atoms: _83  and  _84
REMARK   37  A    between atoms: _83  and  _86
REMARK   38  A    between atoms: _89  and  _91
REMARK   39  A    between atoms: _91  and  _92
REMARK   40  A    between atoms: _91  and  _94
REMARK   41  A    between atoms: _94  and  _95
REMARK   42  A    between atoms: _98  and  _100
REMARK   43  A    between atoms: _100  and  _101
REMARK   44  A    between atoms: _100  and  _103
REMARK   45  A    between atoms: _103  and  _104
REMARK   46  A    between atoms: _107  and  _109
REMARK   47  A    between atoms: _109  and  _110
REMARK   48  A    between atoms: _112  and  _114
REMARK   49  A    between atoms: _114  and  _115
REMARK   50  A    between atoms: _114  and  _117
REMARK   51  A    between atoms: _117  and  _118
REMARK   52  A    between atoms: _120  and  _122
REMARK   53  A    between atoms: _122  and  _123
REMARK   54  A    between atoms: _122  and  _125
REMARK   55  A    between atoms: _125  and  _126
REMARK   56  A    between atoms: _128  and  _130
REMARK   57  A    between atoms: _130  and  _131
REMARK   58  A    between atoms: _130  and  _133
REMARK   59  A    between atoms: _133  and  _134
REMARK   60  A    between atoms: _139  and  _141
REMARK   61  A    between atoms: _141  and  _142
REMARK   62  A    between atoms: _141  and  _144
REMARK   63  A    between atoms: _144  and  _145
REMARK   64  A    between atoms: _150  and  _151
REMARK   65  A    between atoms: _153  and  _155
REMARK   66  A    between atoms: _155  and  _156
REMARK   67  A    between atoms: _155  and  _158
REMARK   68  A    between atoms: _162  and  _163
REMARK   69  A    between atoms: _168  and  _170
REMARK   70  A    between atoms: _170  and  _171
REMARK   71  A    between atoms: _170  and  _173
REMARK   72  A    between atoms: _173  and  _174
REMARK   73  A    between atoms: _179  and  _180
REMARK   74  A    between atoms: _182  and  _184
REMARK   75  A    between atoms: _184  and  _185
REMARK   76  A    between atoms: _184  and  _187
REMARK   77  A    between atoms: _187  and  _188
REMARK   78  A    between atoms: _191  and  _193
REMARK   79  A    between atoms: _193  and  _194
REMARK   80  A    between atoms: _193  and  _196
REMARK   81  A    between atoms: _196  and  _197
REMARK   82  A    between atoms: _197  and  _198
REMARK   83  A    between atoms: _203  and  _205
REMARK   84  A    between atoms: _205  and  _206
REMARK   85  A    between atoms: _208  and  _210
REMARK   86  A    between atoms: _210  and  _211
REMARK   87  A    between atoms: _210  and  _213
REMARK   88  A    between atoms: _213  and  _214
REMARK   89  A    between atoms: _214  and  _215
REMARK   90  A    between atoms: _215  and  _216
REMARK   91  A    between atoms: _216  and  _217
REMARK   92  A    between atoms: _221  and  _223
REMARK   93  A    between atoms: _223  and  _224
REMARK   94  A    between atoms: _223  and  _226
REMARK   95  A    between atoms: _226  and  _227
REMARK   96  A    between atoms: _237  and  _239
REMARK   97  A    between atoms: _239  and  _240
REMARK   98  A    between atoms: _239  and  _242
REMARK   99  A    between atoms: _242  and  _243
REMARK  100  A    between atoms: _246  and  _248
REMARK  101  A    between atoms: _248  and  _249
REMARK  102  A    between atoms: _248  and  _251
REMARK  103  A    between atoms: _251  and  _252
REMARK  104  A    between atoms: _252  and  _253
REMARK  105  A    between atoms: _253  and  _254
REMARK  106  A    between atoms: _254  and  _255
REMARK  107  A    between atoms: _259  and  _261
REMARK  108  A    between atoms: _261  and  _262
REMARK  109  A    between atoms: _261  and  _264
REMARK  110  A    between atoms: _264  and  _265
REMARK  111  A    between atoms: _271  and  _273
REMARK  112  A    between atoms: _273  and  _274
REMARK  113  A    between atoms: _273  and  _276
REMARK  114  A    between atoms: _276  and  _277
REMARK  115  A    between atoms: _283  and  _285
REMARK  116  A    between atoms: _285  and  _286
REMARK  117  A    between atoms: _285  and  _288
REMARK  118  A    between atoms: _288  and  _289
REMARK  119  A    between atoms: _292  and  _294
REMARK  120  A    between atoms: _294  and  _295
REMARK  121  A    between atoms: _294  and  _297
REMARK  122  A    between atoms: _297  and  _298
REMARK  123  A    between atoms: _300  and  _302
REMARK  124  A    between atoms: _302  and  _303
REMARK  125  A    between atoms: _302  and  _305
REMARK  126  A    between atoms: _305  and  _306
REMARK  127  A    between atoms: _316  and  _318
REMARK  128  A    between atoms: _318  and  _319
REMARK  129  A    between atoms: _321  and  _323
REMARK  130  A    between atoms: _323  and  _324
REMARK  131  A    between atoms: _323  and  _326
REMARK  132  A    between atoms: _326  and  _327
REMARK  133  A    between atoms: _330  and  _332
REMARK  134  A    between atoms: _332  and  _333
REMARK  135  A    between atoms: _332  and  _335
REMARK  136  A    between atoms: _335  and  _336
REMARK  137  A    between atoms: _339  and  _341
REMARK  138  A    between atoms: _341  and  _342
REMARK  139  A    between atoms: _341  and  _344
REMARK  140  A    between atoms: _344  and  _345
REMARK  141  A    between atoms: _348  and  _350
REMARK  142  A    between atoms: _350  and  _351
REMARK  143  A    between atoms: _354  and  _356
REMARK  144  A    between atoms: _356  and  _357
REMARK  145  A    between atoms: _356  and  _359
REMARK  146  A    between atoms: _359  and  _360
REMARK  147  A    between atoms: _365  and  _366
REMARK  148  A    between atoms: _368  and  _370
REMARK  149  A    between atoms: _370  and  _371
REMARK  150  A    between atoms: _370  and  _373
REMARK  151  A    between atoms: _373  and  _374
REMARK  152  A    between atoms: _374  and  _375
REMARK  153  A    between atoms: _378  and  _380
REMARK  154  A    between atoms: _380  and  _381
REMARK  155  A    between atoms: _380  and  _383
REMARK  156  A    between atoms: _383  and  _384
REMARK  157  A    between atoms: _387  and  _389
REMARK  158  A    between atoms: _389  and  _390
REMARK  159  A    between atoms: _393  and  _395
REMARK  160  A    between atoms: _395  and  _396
REMARK  161  A    between atoms: _395  and  _398
REMARK  162  A    between atoms: _398  and  _399
REMARK  163  A    between atoms: _399  and  _400
REMARK  164  A    between atoms: _400  and  _401
REMARK  165  A    between atoms: _410  and  _412
REMARK  166  A    between atoms: _412  and  _413
REMARK  167  A    between atoms: _412  and  _415
REMARK  168  A    between atoms: _415  and  _416
REMARK  169  A    between atoms: _419  and  _421
REMARK  170  A    between atoms: _421  and  _422
REMARK  171  A    between atoms: _421  and  _424
REMARK  172  A    between atoms: _424  and  _425
REMARK  173  A    between atoms: _435  and  _437
REMARK  174  A    between atoms: _437  and  _438
REMARK  175  A    between atoms: _437  and  _440
REMARK  176  A    between atoms: _440  and  _441
REMARK  177  A    between atoms: _446  and  _447
REMARK  178  A    between atoms: _449  and  _451
REMARK  179  A    between atoms: _451  and  _452
REMARK  180  A    between atoms: _451  and  _454
REMARK  181  A    between atoms: _454  and  _455
REMARK  182  A    between atoms: _455  and  _456
REMARK  183  A    between atoms: _456  and  _457
REMARK  184  A    between atoms: _457  and  _458
REMARK  185  A    between atoms: _462  and  _464
REMARK  186  A    between atoms: _464  and  _465
REMARK  187  A    between atoms: _464  and  _467
REMARK  188  A    between atoms: _467  and  _468
REMARK  189  A    between atoms: _471  and  _473
REMARK  190  A    between atoms: _473  and  _474
REMARK  191  A    between atoms: _473  and  _476
REMARK  192  A    between atoms: _479  and  _481
REMARK  193  A    between atoms: _481  and  _482
REMARK  194  A    between atoms: _481  and  _484
REMARK  195  A    between atoms: _484  and  _485
REMARK  196  A    between atoms: _488  and  _490
REMARK  197  A    between atoms: _490  and  _491
REMARK  198  A    between atoms: _490  and  _493
REMARK  199  A    between atoms: _493  and  _494
REMARK  200  A    between atoms: _496  and  _498
REMARK  201  A    between atoms: _498  and  _499
REMARK  202  A    between atoms: _501  and  _503
REMARK  203  A    between atoms: _503  and  _504
REMARK  204  A    between atoms: _503  and  _506
REMARK  205  A    between atoms: _506  and  _507
REMARK  206  A    between atoms: _510  and  _512
REMARK  207  A    between atoms: _512  and  _513
REMARK  208  A    between atoms: _512  and  _515
REMARK  209  A    between atoms: _515  and  _516
REMARK  210  A    between atoms: _519  and  _521
REMARK  211  A    between atoms: _521  and  _522
REMARK  212  A    between atoms: _521  and  _524
REMARK  213  A    between atoms: _524  and  _525
REMARK  214  A    between atoms: _530  and  _532
REMARK  215  A    between atoms: _532  and  _533
REMARK  216  A    between atoms: _532  and  _535
REMARK  217  A    between atoms: _535  and  _536
REMARK  218  A    between atoms: _539  and  _541
REMARK  219  A    between atoms: _541  and  _542
REMARK  220  A    between atoms: _541  and  _544
REMARK  221  A    between atoms: _544  and  _545
REMARK  222  A    between atoms: _545  and  _546
REMARK  223  A    between atoms: _546  and  _547
REMARK  224  A    between atoms: _556  and  _558
REMARK  225  A    between atoms: _558  and  _559
REMARK  226  A    between atoms: _558  and  _561
REMARK  227  A    between atoms: _561  and  _562
REMARK  228  A    between atoms: _562  and  _563
REMARK  229  A    between atoms: _563  and  _564
REMARK  230  A    between atoms: _573  and  _575
REMARK  231  A    between atoms: _575  and  _576
REMARK  232  A    between atoms: _575  and  _578
REMARK  233  A    between atoms: _578  and  _579
REMARK  234  A    between atoms: _581  and  _583
REMARK  235  A    between atoms: _583  and  _584
REMARK  236  A    between atoms: _583  and  _586
REMARK  237  A    between atoms: _586  and  _587
REMARK  238  A    between atoms: _587  and  _588
REMARK  239  A    between atoms: _593  and  _595
REMARK  240  A    between atoms: _595  and  _596
REMARK  241  A    between atoms: _595  and  _598
REMARK  242  A    between atoms: _598  and  _599
REMARK  243  A    between atoms: _601  and  _603
REMARK  244  A    between atoms: _603  and  _604
REMARK  245  A    between atoms: _603  and  _606
REMARK  246  A    between atoms: _606  and  _607
REMARK  247  A    between atoms: _610  and  _612
REMARK  248  A    between atoms: _612  and  _613
REMARK  249  A    between atoms: _612  and  _615
REMARK  250  A    between atoms: _615  and  _616
REMARK  251  A    between atoms: _619  and  _621
REMARK  252  A    between atoms: _621  and  _622
REMARK  253  A    between atoms: _621  and  _624
REMARK  254  A    between atoms: _627  and  _629
REMARK  255  A    between atoms: _629  and  _630
REMARK  256  A    between atoms: _632  and  _634
REMARK  257  A    between atoms: _634  and  _635
REMARK  258  A    between atoms: _638  and  _640
REMARK  259  A    between atoms: _640  and  _641
REMARK  260  A    between atoms: _640  and  _643
REMARK  261  A    between atoms: _646  and  _648
REMARK  262  A    between atoms: _648  and  _649
REMARK  263  A    between atoms: _648  and  _651
REMARK  264  A    between atoms: _651  and  _652
REMARK  265  A    between atoms: _652  and  _653
REMARK  266  A    between atoms: _655  and  _657
REMARK  267  A    between atoms: _657  and  _658
REMARK  268  A    between atoms: _657  and  _660
REMARK  269  A    between atoms: _660  and  _661
REMARK  270  A    between atoms: _661  and  _662
REMARK                            x       y       z     vdW  Elec       q    Type
REMARK                         _______ _______ _______ _____ _____    ______ ____
ROOT
ATOM      1  O   HOH     1      -9.399  -0.279  25.079  0.00  0.00    +0.000 OA
ENDROOT
TORSDOF 0
REMARK  Name = ../refined-set-2016/2g94/2g94_pocket.pdb
REMARK  270 active torsions:
REMARK  status: ('A' for Active; 'I' for Inactive)
REMARK    1  A    between atoms: _1  and  _3
REMARK    2  A    between atoms: _3  and  _4
REMARK    3  A    between atoms: _3  and  _6
REMARK    4  A    between atoms: _6  and  _7
REMARK    5  A    between atoms: _7  and  _8
REMARK    6  A    between atoms: _8  and  _9
REMARK    7  A    between atoms: _9  and  _10
REMARK    8  A    between atoms: _14  and  _16
REMARK    9  A    between atoms: _16  and  _17
REMARK   10  A    between atoms: _16  and  _19
REMARK   11  A    between atoms: _19  and  _20
REMARK   12  A    between atoms: _22  and  _24
REMARK   13  A    between atoms: _24  and  _25
REMARK   14  A    between atoms: _27  and  _29
REMARK   15  A    between atoms: _29  and  _30
REMARK   16  A    between atoms: _29  and  _32
REMARK   17  A    between atoms: _32  and  _33
REMARK   18  A    between atoms: _33  and  _34
REMARK   19  A    between atoms: _39  and  _41
REMARK   20  A    between atoms: _41  and  _42
REMARK   21  A    between atoms: _44  and  _46
REMARK   22  A    between atoms: _46  and  _47
REMARK   23  A    between atoms: _46  and  _49
REMARK   24  A    between atoms: _49  and  _50
REMARK   25  A    between atoms: _55  and  _56
REMARK   26  A    between atoms: _58  and  _60
REMARK   27  A    between atoms: _60  and  _61
REMARK   28  A    between atoms: _60  and  _63
REMARK   29  A    between atoms: _63  and  _64
REMARK   30  A    between atoms: _69  and  _70
REMARK   31  A    between atoms: _72  and  _74
REMARK   32  A    between atoms: _74  and  _75
REMARK   33  A    between atoms: _74  and  _77
REMARK   34  A    between atoms: _77  and  _78
REMARK   35  A    between atoms: _81  and  _83
REMARK   36  A    between atoms: _83  and  _84
REMARK   37  A    between atoms: _83  and  _86
REMARK   38  A    between atoms: _89  and  _91
REMARK   39  A    between atoms: _91  and  _92
REMARK   40  A    between atoms: _91  and  _94
REMARK   41  A    between atoms: _94  and  _95
REMARK   42  A    between atoms: _98  and  _100
REMARK   43  A    between atoms: _100  and  _101
REMARK   44  A    between atoms: _100  and  _103
REMARK   45  A    between atoms: _103  and  _104
REMARK   46  A    between atoms: _107  and  _109
REMARK   47  A    between atoms: _109  and  _110
REMARK   48  A    between atoms: _112  and  _114
REMARK   49  A    between atoms: _114  and  _115
REMARK   50  A    between atoms: _114  and  _117
REMARK   51  A    between atoms: _117  and  _118
REMARK   52  A    between atoms: _120  and  _122
REMARK   53  A    between atoms: _122  and  _123
REMARK   54  A    between atoms: _122  and  _125
REMARK   55  A    between atoms: _125  and  _126
REMARK   56  A    between atoms: _128  and  _130
REMARK   57  A    between atoms: _130  and  _131
REMARK   58  A    between atoms: _130  and  _133
REMARK   59  A    between atoms: _133  and  _134
REMARK   60  A    between atoms: _139  and  _141
REMARK   61  A    between atoms: _141  and  _142
REMARK   62  A    between atoms: _141  and  _144
REMARK   63  A    between atoms: _144  and  _145
REMARK   64  A    between atoms: _150  and  _151
REMARK   65  A    between atoms: _153  and  _155
REMARK   66  A    between atoms: _155  and  _156
REMARK   67  A    between atoms: _155  and  _158
REMARK   68  A    between atoms: _162  and  _163
REMARK   69  A    between atoms: _168  and  _170
REMARK   70  A    between atoms: _170  and  _171
REMARK   71  A    between atoms: _170  and  _173
REMARK   72  A    between atoms: _173  and  _174
REMARK   73  A    between atoms: _179  and  _180
REMARK   74  A    between atoms: _182  and  _184
REMARK   75  A    between atoms: _184  and  _185
REMARK   76  A    between atoms: _184  and  _187
REMARK   77  A    between atoms: _187  and  _188
REMARK   78  A    between atoms: _191  and  _193
REMARK   79  A    between atoms: _193  and  _194
REMARK   80  A    between atoms: _193  and  _196
REMARK   81  A    between atoms: _196  and  _197
REMARK   82  A    between atoms: _197  and  _198
REMARK   83  A    between atoms: _203  and  _205
REMARK   84  A    between atoms: _205  and  _206
REMARK   85  A    between atoms: _208  and  _210
REMARK   86  A    between atoms: _210  and  _211
REMARK   87  A    between atoms: _210  and  _213
REMARK   88  A    between atoms: _213  and  _214
REMARK   89  A    between atoms: _214  and  _215
REMARK   90  A    between atoms: _215  and  _216
REMARK   91  A    between atoms: _216  and  _217
REMARK   92  A    between atoms: _221  and  _223
REMARK   93  A    between atoms: _223  and  _224
REMARK   94  A    between atoms: _223  and  _226
REMARK   95  A    between atoms: _226  and  _227
REMARK   96  A    between atoms: _237  and  _239
REMARK   97  A    between atoms: _239  and  _240
REMARK   98  A    between atoms: _239  and  _242
REMARK   99  A    between atoms: _242  and  _243
REMARK  100  A    between atoms: _246  and  _248
REMARK  101  A    between atoms: _248  and  _249
REMARK  102  A    between atoms: _248  and  _251
REMARK  103  A    between atoms: _251  and  _252
REMARK  104  A    between atoms: _252  and  _253
REMARK  105  A    between atoms: _253  and  _254
REMARK  106  A    between atoms: _254  and  _255
REMARK  107  A    between atoms: _259  and  _261
REMARK  108  A    between atoms: _261  and  _262
REMARK  109  A    between atoms: _261  and  _264
REMARK  110  A    between atoms: _264  and  _265
REMARK  111  A    between atoms: _271  and  _273
REMARK  112  A    between atoms: _273  and  _274
REMARK  113  A    between atoms: _273  and  _276
REMARK  114  A    between atoms: _276  and  _277
REMARK  115  A    between atoms: _283  and  _285
REMARK  116  A    between atoms: _285  and  _286
REMARK  117  A    between atoms: _285  and  _288
REMARK  118  A    between atoms: _288  and  _289
REMARK  119  A    between atoms: _292  and  _294
REMARK  120  A    between atoms: _294  and  _295
REMARK  121  A    between atoms: _294  and  _297
REMARK  122  A    between atoms: _297  and  _298
REMARK  123  A    between atoms: _300  and  _302
REMARK  124  A    between atoms: _302  and  _303
REMARK  125  A    between atoms: _302  and  _305
REMARK  126  A    between atoms: _305  and  _306
REMARK  127  A    between atoms: _316  and  _318
REMARK  128  A    between atoms: _318  and  _319
REMARK  129  A    between atoms: _321  and  _323
REMARK  130  A    between atoms: _323  and  _324
REMARK  131  A    between atoms: _323  and  _326
REMARK  132  A    between atoms: _326  and  _327
REMARK  133  A    between atoms: _330  and  _332
REMARK  134  A    between atoms: _332  and  _333
REMARK  135  A    between atoms: _332  and  _335
REMARK  136  A    between atoms: _335  and  _336
REMARK  137  A    between atoms: _339  and  _341
REMARK  138  A    between atoms: _341  and  _342
REMARK  139  A    between atoms: _341  and  _344
REMARK  140  A    between atoms: _344  and  _345
REMARK  141  A    between atoms: _348  and  _350
REMARK  142  A    between atoms: _350  and  _351
REMARK  143  A    between atoms: _354  and  _356
REMARK  144  A    between atoms: _356  and  _357
REMARK  145  A    between atoms: _356  and  _359
REMARK  146  A    between atoms: _359  and  _360
REMARK  147  A    between atoms: _365  and  _366
REMARK  148  A    between atoms: _368  and  _370
REMARK  149  A    between atoms: _370  and  _371
REMARK  150  A    between atoms: _370  and  _373
REMARK  151  A    between atoms: _373  and  _374
REMARK  152  A    between atoms: _374  and  _375
REMARK  153  A    between atoms: _378  and  _380
REMARK  154  A    between atoms: _380  and  _381
REMARK  155  A    between atoms: _380  and  _383
REMARK  156  A    between atoms: _383  and  _384
REMARK  157  A    between atoms: _387  and  _389
REMARK  158  A    between atoms: _389  and  _390
REMARK  159  A    between atoms: _393  and  _395
REMARK  160  A    between atoms: _395  and  _396
REMARK  161  A    between atoms: _395  and  _398
REMARK  162  A    between atoms: _398  and  _399
REMARK  163  A    between atoms: _399  and  _400
REMARK  164  A    between atoms: _400  and  _401
REMARK  165  A    between atoms: _410  and  _412
REMARK  166  A    between atoms: _412  and  _413
REMARK  167  A    between atoms: _412  and  _415
REMARK  168  A    between atoms: _415  and  _416
REMARK  169  A    between atoms: _419  and  _421
REMARK  170  A    between atoms: _421  and  _422
REMARK  171  A    between atoms: _421  and  _424
REMARK  172  A    between atoms: _424  and  _425
REMARK  173  A    between atoms: _435  and  _437
REMARK  174  A    between atoms: _437  and  _438
REMARK  175  A    between atoms: _437  and  _440
REMARK  176  A    between atoms: _440  and  _441
REMARK  177  A    between atoms: _446  and  _447
REMARK  178  A    between atoms: _449  and  _451
REMARK  179  A    between atoms: _451  and  _452
REMARK  180  A    between atoms: _451  and  _454
REMARK  181  A    between atoms: _454  and  _455
REMARK  182  A    between atoms: _455  and  _456
REMARK  183  A    between atoms: _456  and  _457
REMARK  184  A    between atoms: _457  and  _458
REMARK  185  A    between atoms: _462  and  _464
REMARK  186  A    between atoms: _464  and  _465
REMARK  187  A    between atoms: _464  and  _467
REMARK  188  A    between atoms: _467  and  _468
REMARK  189  A    between atoms: _471  and  _473
REMARK  190  A    between atoms: _473  and  _474
REMARK  191  A    between atoms: _473  and  _476
REMARK  192  A    between atoms: _479  and  _481
REMARK  193  A    between atoms: _481  and  _482
REMARK  194  A    between atoms: _481  and  _484
REMARK  195  A    between atoms: _484  and  _485
REMARK  196  A    between atoms: _488  and  _490
REMARK  197  A    between atoms: _490  and  _491
REMARK  198  A    between atoms: _490  and  _493
REMARK  199  A    between atoms: _493  and  _494
REMARK  200  A    between atoms: _496  and  _498
REMARK  201  A    between atoms: _498  and  _499
REMARK  202  A    between atoms: _501  and  _503
REMARK  203  A    between atoms: _503  and  _504
REMARK  204  A    between atoms: _503  and  _506
REMARK  205  A    between atoms: _506  and  _507
REMARK  206  A    between atoms: _510  and  _512
REMARK  207  A    between atoms: _512  and  _513
REMARK  208  A    between atoms: _512  and  _515
REMARK  209  A    between atoms: _515  and  _516
REMARK  210  A    between atoms: _519  and  _521
REMARK  211  A    between atoms: _521  and  _522
REMARK  212  A    between atoms: _521  and  _524
REMARK  213  A    between atoms: _524  and  _525
REMARK  214  A    between atoms: _530  and  _532
REMARK  215  A    between atoms: _532  and  _533
REMARK  216  A    between atoms: _532  and  _535
REMARK  217  A    between atoms: _535  and  _536
REMARK  218  A    between atoms: _539  and  _541
REMARK  219  A    between atoms: _541  and  _542
REMARK  220  A    between atoms: _541  and  _544
REMARK  221  A    between atoms: _544  and  _545
REMARK  222  A    between atoms: _545  and  _546
REMARK  223  A    between atoms: _546  and  _547
REMARK  224  A    between atoms: _556  and  _558
REMARK  225  A    between atoms: _558  and  _559
REMARK  226  A    between atoms: _558  and  _561
REMARK  227  A    between atoms: _561  and  _562
REMARK  228  A    between atoms: _562  and  _563
REMARK  229  A    between atoms: _563  and  _564
REMARK  230  A    between atoms: _573  and  _575
REMARK  231  A    between atoms: _575  and  _576
REMARK  232  A    between atoms: _575  and  _578
REMARK  233  A    between atoms: _578  and  _579
REMARK  234  A    between atoms: _581  and  _583
REMARK  235  A    between atoms: _583  and  _584
REMARK  236  A    between atoms: _583  and  _586
REMARK  237  A    between atoms: _586  and  _587
REMARK  238  A    between atoms: _587  and  _588
REMARK  239  A    between atoms: _593  and  _595
REMARK  240  A    between atoms: _595  and  _596
REMARK  241  A    between atoms: _595  and  _598
REMARK  242  A    between atoms: _598  and  _599
REMARK  243  A    between atoms: _601  and  _603
REMARK  244  A    between atoms: _603  and  _604
REMARK  245  A    between atoms: _603  and  _606
REMARK  246  A    between atoms: _606  and  _607
REMARK  247  A    between atoms: _610  and  _612
REMARK  248  A    between atoms: _612  and  _613
REMARK  249  A    between atoms: _612  and  _615
REMARK  250  A    between atoms: _615  and  _616
REMARK  251  A    between atoms: _619  and  _621
REMARK  252  A    between atoms: _621  and  _622
REMARK  253  A    between atoms: _621  and  _624
REMARK  254  A    between atoms: _627  and  _629
REMARK  255  A    between atoms: _629  and  _630
REMARK  256  A    between atoms: _632  and  _634
REMARK  257  A    between atoms: _634  and  _635
REMARK  258  A    between atoms: _638  and  _640
REMARK  259  A    between atoms: _640  and  _641
REMARK  260  A    between atoms: _640  and  _643
REMARK  261  A    between atoms: _646  and  _648
REMARK  262  A    between atoms: _648  and  _649
REMARK  263  A    between atoms: _648  and  _651
REMARK  264  A    between atoms: _651  and  _652
REMARK  265  A    between atoms: _652  and  _653
REMARK  266  A    between atoms: _655  and  _657
REMARK  267  A    between atoms: _657  and  _658
REMARK  268  A    between atoms: _657  and  _660
REMARK  269  A    between atoms: _660  and  _661
REMARK  270  A    between atoms: _661  and  _662
REMARK                            x       y       z     vdW  Elec       q    Type
REMARK                         _______ _______ _______ _____ _____    ______ ____
ROOT
ATOM      1  O   HOH     1      -7.209   1.128  23.358  0.00  0.00    +0.000 OA
ENDROOT
TORSDOF 0
REMARK  Name = ../refined-set-2016/2g94/2g94_pocket.pdb
REMARK  270 active torsions:
REMARK  status: ('A' for Active; 'I' for Inactive)
REMARK    1  A    between atoms: _1  and  _3
REMARK    2  A    between atoms: _3  and  _4
REMARK    3  A    between atoms: _3  and  _6
REMARK    4  A    between atoms: _6  and  _7
REMARK    5  A    between atoms: _7  and  _8
REMARK    6  A    between atoms: _8  and  _9
REMARK    7  A    between atoms: _9  and  _10
REMARK    8  A    between atoms: _14  and  _16
REMARK    9  A    between atoms: _16  and  _17
REMARK   10  A    between atoms: _16  and  _19
REMARK   11  A    between atoms: _19  and  _20
REMARK   12  A    between atoms: _22  and  _24
REMARK   13  A    between atoms: _24  and  _25
REMARK   14  A    between atoms: _27  and  _29
REMARK   15  A    between atoms: _29  and  _30
REMARK   16  A    between atoms: _29  and  _32
REMARK   17  A    between atoms: _32  and  _33
REMARK   18  A    between atoms: _33  and  _34
REMARK   19  A    between atoms: _39  and  _41
REMARK   20  A    between atoms: _41  and  _42
REMARK   21  A    between atoms: _44  and  _46
REMARK   22  A    between atoms: _46  and  _47
REMARK   23  A    between atoms: _46  and  _49
REMARK   24  A    between atoms: _49  and  _50
REMARK   25  A    between atoms: _55  and  _56
REMARK   26  A    between atoms: _58  and  _60
REMARK   27  A    between atoms: _60  and  _61
REMARK   28  A    between atoms: _60  and  _63
REMARK   29  A    between atoms: _63  and  _64
REMARK   30  A    between atoms: _69  and  _70
REMARK   31  A    between atoms: _72  and  _74
REMARK   32  A    between atoms: _74  and  _75
REMARK   33  A    between atoms: _74  and  _77
REMARK   34  A    between atoms: _77  and  _78
REMARK   35  A    between atoms: _81  and  _83
REMARK   36  A    between atoms: _83  and  _84
REMARK   37  A    between atoms: _83  and  _86
REMARK   38  A    between atoms: _89  and  _91
REMARK   39  A    between atoms: _91  and  _92
REMARK   40  A    between atoms: _91  and  _94
REMARK   41  A    between atoms: _94  and  _95
REMARK   42  A    between atoms: _98  and  _100
REMARK   43  A    between atoms: _100  and  _101
REMARK   44  A    between atoms: _100  and  _103
REMARK   45  A    between atoms: _103  and  _104
REMARK   46  A    between atoms: _107  and  _109
REMARK   47  A    between atoms: _109  and  _110
REMARK   48  A    between atoms: _112  and  _114
REMARK   49  A    between atoms: _114  and  _115
REMARK   50  A    between atoms: _114  and  _117
REMARK   51  A    between atoms: _117  and  _118
REMARK   52  A    between atoms: _120  and  _122
REMARK   53  A    between atoms: _122  and  _123
REMARK   54  A    between atoms: _122  and  _125
REMARK   55  A    between atoms: _125  and  _126
REMARK   56  A    between atoms: _128  and  _130
REMARK   57  A    between atoms: _130  and  _131
REMARK   58  A    between atoms: _130  and  _133
REMARK   59  A    between atoms: _133  and  _134
REMARK   60  A    between atoms: _139  and  _141
REMARK   61  A    between atoms: _141  and  _142
REMARK   62  A    between atoms: _141  and  _144
REMARK   63  A    between atoms: _144  and  _145
REMARK   64  A    between atoms: _150  and  _151
REMARK   65  A    between atoms: _153  and  _155
REMARK   66  A    between atoms: _155  and  _156
REMARK   67  A    between atoms: _155  and  _158
REMARK   68  A    between atoms: _162  and  _163
REMARK   69  A    between atoms: _168  and  _170
REMARK   70  A    between atoms: _170  and  _171
REMARK   71  A    between atoms: _170  and  _173
REMARK   72  A    between atoms: _173  and  _174
REMARK   73  A    between atoms: _179  and  _180
REMARK   74  A    between atoms: _182  and  _184
REMARK   75  A    between atoms: _184  and  _185
REMARK   76  A    between atoms: _184  and  _187
REMARK   77  A    between atoms: _187  and  _188
REMARK   78  A    between atoms: _191  and  _193
REMARK   79  A    between atoms: _193  and  _194
REMARK   80  A    between atoms: _193  and  _196
REMARK   81  A    between atoms: _196  and  _197
REMARK   82  A    between atoms: _197  and  _198
REMARK   83  A    between atoms: _203  and  _205
REMARK   84  A    between atoms: _205  and  _206
REMARK   85  A    between atoms: _208  and  _210
REMARK   86  A    between atoms: _210  and  _211
REMARK   87  A    between atoms: _210  and  _213
REMARK   88  A    between atoms: _213  and  _214
REMARK   89  A    between atoms: _214  and  _215
REMARK   90  A    between atoms: _215  and  _216
REMARK   91  A    between atoms: _216  and  _217
REMARK   92  A    between atoms: _221  and  _223
REMARK   93  A    between atoms: _223  and  _224
REMARK   94  A    between atoms: _223  and  _226
REMARK   95  A    between atoms: _226  and  _227
REMARK   96  A    between atoms: _237  and  _239
REMARK   97  A    between atoms: _239  and  _240
REMARK   98  A    between atoms: _239  and  _242
REMARK   99  A    between atoms: _242  and  _243
REMARK  100  A    between atoms: _246  and  _248
REMARK  101  A    between atoms: _248  and  _249
REMARK  102  A    between atoms: _248  and  _251
REMARK  103  A    between atoms: _251  and  _252
REMARK  104  A    between atoms: _252  and  _253
REMARK  105  A    between atoms: _253  and  _254
REMARK  106  A    between atoms: _254  and  _255
REMARK  107  A    between atoms: _259  and  _261
REMARK  108  A    between atoms: _261  and  _262
REMARK  109  A    between atoms: _261  and  _264
REMARK  110  A    between atoms: _264  and  _265
REMARK  111  A    between atoms: _271  and  _273
REMARK  112  A    between atoms: _273  and  _274
REMARK  113  A    between atoms: _273  and  _276
REMARK  114  A    between atoms: _276  and  _277
REMARK  115  A    between atoms: _283  and  _285
REMARK  116  A    between atoms: _285  and  _286
REMARK  117  A    between atoms: _285  and  _288
REMARK  118  A    between atoms: _288  and  _289
REMARK  119  A    between atoms: _292  and  _294
REMARK  120  A    between atoms: _294  and  _295
REMARK  121  A    between atoms: _294  and  _297
REMARK  122  A    between atoms: _297  and  _298
REMARK  123  A    between atoms: _300  and  _302
REMARK  124  A    between atoms: _302  and  _303
REMARK  125  A    between atoms: _302  and  _305
REMARK  126  A    between atoms: _305  and  _306
REMARK  127  A    between atoms: _316  and  _318
REMARK  128  A    between atoms: _318  and  _319
REMARK  129  A    between atoms: _321  and  _323
REMARK  130  A    between atoms: _323  and  _324
REMARK  131  A    between atoms: _323  and  _326
REMARK  132  A    between atoms: _326  and  _327
REMARK  133  A    between atoms: _330  and  _332
REMARK  134  A    between atoms: _332  and  _333
REMARK  135  A    between atoms: _332  and  _335
REMARK  136  A    between atoms: _335  and  _336
REMARK  137  A    between atoms: _339  and  _341
REMARK  138  A    between atoms: _341  and  _342
REMARK  139  A    between atoms: _341  and  _344
REMARK  140  A    between atoms: _344  and  _345
REMARK  141  A    between atoms: _348  and  _350
REMARK  142  A    between atoms: _350  and  _351
REMARK  143  A    between atoms: _354  and  _356
REMARK  144  A    between atoms: _356  and  _357
REMARK  145  A    between atoms: _356  and  _359
REMARK  146  A    between atoms: _359  and  _360
REMARK  147  A    between atoms: _365  and  _366
REMARK  148  A    between atoms: _368  and  _370
REMARK  149  A    between atoms: _370  and  _371
REMARK  150  A    between atoms: _370  and  _373
REMARK  151  A    between atoms: _373  and  _374
REMARK  152  A    between atoms: _374  and  _375
REMARK  153  A    between atoms: _378  and  _380
REMARK  154  A    between atoms: _380  and  _381
REMARK  155  A    between atoms: _380  and  _383
REMARK  156  A    between atoms: _383  and  _384
REMARK  157  A    between atoms: _387  and  _389
REMARK  158  A    between atoms: _389  and  _390
REMARK  159  A    between atoms: _393  and  _395
REMARK  160  A    between atoms: _395  and  _396
REMARK  161  A    between atoms: _395  and  _398
REMARK  162  A    between atoms: _398  and  _399
REMARK  163  A    between atoms: _399  and  _400
REMARK  164  A    between atoms: _400  and  _401
REMARK  165  A    between atoms: _410  and  _412
REMARK  166  A    between atoms: _412  and  _413
REMARK  167  A    between atoms: _412  and  _415
REMARK  168  A    between atoms: _415  and  _416
REMARK  169  A    between atoms: _419  and  _421
REMARK  170  A    between atoms: _421  and  _422
REMARK  171  A    between atoms: _421  and  _424
REMARK  172  A    between atoms: _424  and  _425
REMARK  173  A    between atoms: _435  and  _437
REMARK  174  A    between atoms: _437  and  _438
REMARK  175  A    between atoms: _437  and  _440
REMARK  176  A    between atoms: _440  and  _441
REMARK  177  A    between atoms: _446  and  _447
REMARK  178  A    between atoms: _449  and  _451
REMARK  179  A    between atoms: _451  and  _452
REMARK  180  A    between atoms: _451  and  _454
REMARK  181  A    between atoms: _454  and  _455
REMARK  182  A    between atoms: _455  and  _456
REMARK  183  A    between atoms: _456  and  _457
REMARK  184  A    between atoms: _457  and  _458
REMARK  185  A    between atoms: _462  and  _464
REMARK  186  A    between atoms: _464  and  _465
REMARK  187  A    between atoms: _464  and  _467
REMARK  188  A    between atoms: _467  and  _468
REMARK  189  A    between atoms: _471  and  _473
REMARK  190  A    between atoms: _473  and  _474
REMARK  191  A    between atoms: _473  and  _476
REMARK  192  A    between atoms: _479  and  _481
REMARK  193  A    between atoms: _481  and  _482
REMARK  194  A    between atoms: _481  and  _484
REMARK  195  A    between atoms: _484  and  _485
REMARK  196  A    between atoms: _488  and  _490
REMARK  197  A    between atoms: _490  and  _491
REMARK  198  A    between atoms: _490  and  _493
REMARK  199  A    between atoms: _493  and  _494
REMARK  200  A    between atoms: _496  and  _498
REMARK  201  A    between atoms: _498  and  _499
REMARK  202  A    between atoms: _501  and  _503
REMARK  203  A    between atoms: _503  and  _504
REMARK  204  A    between atoms: _503  and  _506
REMARK  205  A    between atoms: _506  and  _507
REMARK  206  A    between atoms: _510  and  _512
REMARK  207  A    between atoms: _512  and  _513
REMARK  208  A    between atoms: _512  and  _515
REMARK  209  A    between atoms: _515  and  _516
REMARK  210  A    between atoms: _519  and  _521
REMARK  211  A    between atoms: _521  and  _522
REMARK  212  A    between atoms: _521  and  _524
REMARK  213  A    between atoms: _524  and  _525
REMARK  214  A    between atoms: _530  and  _532
REMARK  215  A    between atoms: _532  and  _533
REMARK  216  A    between atoms: _532  and  _535
REMARK  217  A    between atoms: _535  and  _536
REMARK  218  A    between atoms: _539  and  _541
REMARK  219  A    between atoms: _541  and  _542
REMARK  220  A    between atoms: _541  and  _544
REMARK  221  A    between atoms: _544  and  _545
REMARK  222  A    between atoms: _545  and  _546
REMARK  223  A    between atoms: _546  and  _547
REMARK  224  A    between atoms: _556  and  _558
REMARK  225  A    between atoms: _558  and  _559
REMARK  226  A    between atoms: _558  and  _561
REMARK  227  A    between atoms: _561  and  _562
REMARK  228  A    between atoms: _562  and  _563
REMARK  229  A    between atoms: _563  and  _564
REMARK  230  A    between atoms: _573  and  _575
REMARK  231  A    between atoms: _575  and  _576
REMARK  232  A    between atoms: _575  and  _578
REMARK  233  A    between atoms: _578  and  _579
REMARK  234  A    between atoms: _581  and  _583
REMARK  235  A    between atoms: _583  and  _584
REMARK  236  A    between atoms: _583  and  _586
REMARK  237  A    between atoms: _586  and  _587
REMARK  238  A    between atoms: _587  and  _588
REMARK  239  A    between atoms: _593  and  _595
REMARK  240  A    between atoms: _595  and  _596
REMARK  241  A    between atoms: _595  and  _598
REMARK  242  A    between atoms: _598  and  _599
REMARK  243  A    between atoms: _601  and  _603
REMARK  244  A    between atoms: _603  and  _604
REMARK  245  A    between atoms: _603  and  _606
REMARK  246  A    between atoms: _606  and  _607
REMARK  247  A    between atoms: _610  and  _612
REMARK  248  A    between atoms: _612  and  _613
REMARK  249  A    between atoms: _612  and  _615
REMARK  250  A    between atoms: _615  and  _616
REMARK  251  A    between atoms: _619  and  _621
REMARK  252  A    between atoms: _621  and  _622
REMARK  253  A    between atoms: _621  and  _624
REMARK  254  A    between atoms: _627  and  _629
REMARK  255  A    between atoms: _629  and  _630
REMARK  256  A    between atoms: _632  and  _634
REMARK  257  A    between atoms: _634  and  _635
REMARK  258  A    between atoms: _638  and  _640
REMARK  259  A    between atoms: _640  and  _641
REMARK  260  A    between atoms: _640  and  _643
REMARK  261  A    between atoms: _646  and  _648
REMARK  262  A    between atoms: _648  and  _649
REMARK  263  A    between atoms: _648  and  _651
REMARK  264  A    between atoms: _651  and  _652
REMARK  265  A    between atoms: _652  and  _653
REMARK  266  A    between atoms: _655  and  _657
REMARK  267  A    between atoms: _657  and  _658
REMARK  268  A    between atoms: _657  and  _660
REMARK  269  A    between atoms: _660  and  _661
REMARK  270  A    between atoms: _661  and  _662
REMARK                            x       y       z     vdW  Elec       q    Type
REMARK                         _______ _______ _______ _____ _____    ______ ____
ROOT
ATOM      1  O   HOH     1     -11.435   0.912  24.449  0.00  0.00    +0.000 OA
ENDROOT
TORSDOF 0
